12
Properties=species:S:1:pos:R:3 pbc="F F F"
H        0.00000000       0.00000000       0.00000000
H       -0.29363519      -0.58319080       0.72230726
H        0.00000000       0.29845181       0.98196250
H       -0.82336432       0.31530851      -0.41317391
H       -1.26566279      -0.63386744       0.74790299
H       -0.29263300       0.93002307       0.21434039
H       -1.31718874       0.81428826       0.26152420
H       -0.79211932      -0.04804659       1.44496417
H       -1.61801028      -0.06314570       0.00320461
H       -1.63599181       0.23109746       0.97308165
H       -0.82140380      -0.61696845      -0.11835867
H       -0.83912796       0.91221064       1.08287358
