12
Properties=species:S:1:pos:R:3 pbc="F F F"
H        0.00000000       0.00000000       0.00000000
H        0.52815789      -0.26419187       0.83939010
H        0.53187281       0.68549418       0.44189355
H        1.35915709       0.83697498      -0.04873377
H        0.50572193      -0.76967907       0.01331684
H        0.51484907       0.76988739      -0.52797699
H        1.32426834      -0.61819828       0.51838744
H        1.33816910       0.33011094      -0.80510843
H        1.34129214      -0.70259148      -0.45148313
H        1.84191203       0.10434961       0.00526625
H        1.34083927       0.35499319       0.80161089
H        0.54878700      -0.24198186      -0.80383801
