21
Properties=species:S:1:pos:R:3 pbc="F F F"
H        0.00000000       0.00000000       0.00000000
H       -0.32983679       0.96807545      -0.08579928
H       -0.34190583       0.21783850      -0.88527262
H       -1.22906661      -0.16061571      -1.01861155
H       -0.53321737       0.46909574       0.72519797
H       -1.49118769       0.10324365       0.68313801
H       -0.61113960      -0.49136713       0.58555532
H       -1.14957333       0.87912047      -0.69689900
H       -0.56702846      -0.63096058      -0.46465304
H       -1.81103849       0.38014075      -0.18548530
H       -1.50645447      -0.53828990      -0.07697427
H       -1.22768331       1.01601517       0.26553726
H       -0.76034510      -0.45389670       0.54291248
H       -1.79547763       0.30293238      -0.29914945
H       -0.13427475       0.67384195       1.70654964
H       -0.61086011       1.61440301       1.93532562
H       -1.57920504       1.31595123       2.09829354
H       -0.13719115       0.71048433       1.69937563
H       -1.15244198       0.73276043       1.44574261
H       -2.40723348       1.96218967       1.85157084
H       -1.55909562       1.76743114       1.30746126
