15
Properties=species:S:1:pos:R:3 pbc="F F F"
H        0.00000000       0.00000000       0.00000000
H        0.35866648      -0.83756196      -0.47241095
H        1.33102059      -1.06717551      -0.23761521
H        0.60837179      -0.66108263       0.37538579
H        0.50743383       0.77460212      -0.30093759
H        0.81120980       0.36524016       0.52864289
H        1.89460635      -0.33536428      -0.54564828
H        1.17263472       0.44224992      -1.00830865
H        1.53265619       0.62702090      -0.12269861
H        0.21993513       0.05067664      -0.94716489
H        1.03675139      -0.57212746      -1.08711910
H        1.63572454      -0.38168132       0.38312149
H        1.58210766       0.48110813      -0.00802267
H        1.40109718      -0.57259524      -1.15036511
H        0.73071957       0.13240165       0.52004462
