12
Properties=species:S:1:pos:R:3 pbc="F F F"
H        0.00000000       0.00000000       0.00000000
H        0.93511528      -0.39891118      -0.14054634
H        1.26483262      -0.76476324       0.75987720
H        0.07352144      -0.89395928      -0.39727038
H        0.86124063      -1.40063763       0.14275634
H        0.82059938       0.12878603       0.66968989
H       -0.17917614       0.01781246       1.01039720
H       -0.56086195      -0.61806196       0.37949258
H        0.54668897      -0.45184857       1.45828032
H       -0.28584963      -0.89162505       1.21021366
H       -0.06497222      -1.51274204       0.46294838
H        0.57502657      -1.37027919       1.13618863
