12
Properties=species:S:1:pos:R:3 pbc="F F F"
H        0.00000000       0.00000000       0.00000000
H        0.63883960       0.60990006      -0.40983751
H        0.67308158      -0.41450709      -0.46219596
H       -0.23246977       0.84879911      -0.41660392
H        0.26219174       0.97575212      -1.29166090
H       -0.23139703      -0.73181123      -0.59913999
H       -0.81842440       0.05067664      -0.52504706
H       -0.66291541      -0.33290005      -1.44055891
H        0.88210273       0.15927970      -1.34072268
H        0.32957995      -0.67839533      -1.45691359
H       -0.61037409       0.60645545      -1.29698348
H        0.04060008       0.20438361      -1.93135750
