12
Properties=species:S:1:pos:R:3 pbc="F F F"
H        0.00000000       0.00000000       0.00000000
H       -0.19310522      -0.77460212      -0.55746114
H       -0.86119521      -0.43977645       0.11401919
H        0.52669066      -0.79461014      -0.19812241
H       -0.34430671      -0.11162928       0.84695315
H        0.10383090      -0.84344053       1.30704665
H       -0.78469855      -1.40520763       0.01326299
H        0.58719265      -1.35083151       0.66227353
H       -0.81725514      -0.96042836       0.90956986
H       -0.30991083      -1.69792199       0.81325173
H        0.63063020      -0.37582114       0.66522658
H        0.05845737      -1.60896695      -0.14053851
