12
Properties=species:S:1:pos:R:3 pbc="F F F"
H        0.00000000       0.00000000       0.00000000
H       -0.46163812      -0.66108263       0.54582143
H        0.33434945      -0.05067664       0.91307348
H       -0.25782758      -0.86484438      -0.36555436
H       -0.14905705      -1.53509033       0.40403202
H        0.55392367      -1.51727784      -0.34351382
H        1.00533056      -0.01781246       0.20571102
H        0.83796787      -1.57069373       0.64126515
H        0.14443727      -1.02999580       1.15430224
H        1.28385389      -0.93481934       0.05397457
H        0.60100973      -0.52769721      -0.55532324
H        1.13864958      -0.70584935       0.97246832
