12
Properties=species:S:1:pos:R:3 pbc="F F F"
H        0.00000000       0.00000000       0.00000000
H       -0.26684549      -0.92909771       0.11675546
H        0.71205604      -0.63064587       0.03928206
H        0.85556149       0.14395624       0.61152214
H        1.09710646      -0.71960086       0.98646051
H       -0.72324455      -0.28065729       0.58533067
H       -0.35661554      -0.26375830       1.48719454
H        0.34346241      -1.01116681       1.55498338
H       -0.49844682      -1.14550161       0.97207487
H        0.57409340       0.01938832       1.44633150
H        0.38575533      -1.31614006       0.64894295
H       -0.06197002       0.40936196       0.88127375
