21
Properties=species:S:1:pos:R:3 pbc="F F F"
H        0.00000000       0.00000000       0.00000000
H        0.50421435      -0.31530851      -0.77097952
H        1.20075333      -1.10104561      -0.52283072
H        0.81606978       0.49897972      -0.18196210
H        1.13369477      -1.28581655       0.43080640
H        0.60541070       0.30422115       0.80343914
H        1.85173333      -0.71643186       0.24686050
H        1.55402148      -0.05679908      -0.48953018
H        0.18304005      -1.03785634      -0.11668944
H        0.24501011      -0.62849438       0.76458430
H        0.92563677      -1.26436877       0.48090851
H        1.61438489       0.27152973       0.36889532
H        1.38369727      -0.10924508      -0.59101951
H        1.18906879      -0.69861943       1.03036702
H        1.20506716      -0.46714735       1.11764705
H        1.68130088      -0.01961511      -0.48711711
H        1.69172704      -0.72785008       0.88489896
H        2.36301398       0.25097689      -0.54843020
H        0.77296793      -0.09432235      -0.09098905
H        0.77920121      -0.06082246      -0.12641683
H        0.99710977      -0.07786617      -0.44413689
