21
Properties=species:S:1:pos:R:3 pbc="F F F"
H        0.00000000       0.00000000       0.00000000
H       -0.61304885      -0.15966894      -0.80746567
H       -0.47354355       0.58582085       0.69706112
H       -1.09727430      -0.17748140       0.09726208
H       -0.18205237      -0.33260977       0.83698601
H       -1.40542042       0.63649750       0.41939527
H       -1.67381620      -0.40709496      -0.72017342
H       -0.32068267      -0.85856134      -0.03334755
H       -0.49520105       0.69797349      -0.25620770
H       -2.04501343       0.15487079      -0.11405899
H       -2.20110965       0.36750716      -0.98477542
H       -1.03605354      -0.77238619       0.67780185
H       -1.45442796       0.20500791      -0.51051813
H       -1.52704382       1.11491561      -1.18562293
H       -1.05014014       1.33275414      -0.36515343
H       -0.60614568       0.79960710      -1.16137350
H       -1.06096625       0.04584444       1.01682961
H       -1.33273745       0.71803957       0.40659046
H       -1.47672188       1.35330701      -1.46967137
H       -1.47620797       1.27112043      -1.46834064
H       -0.91699910       1.13846576      -1.20102453
