13
Properties=species:S:1:pos:R:3 pbc="F F F"
H        0.00000000       0.00000000       0.00000000
H        0.47219095      -0.55577880       0.64514065
H        0.41125485      -0.11600235       1.51171112
H       -0.43282804      -0.79461014       0.35960457
H       -1.04414821       0.02186227       0.24565566
H       -1.16969693       0.40031648       1.13395238
H        0.57167250       0.38297737       0.69113427
H       -0.16335016      -0.84528679       1.29388213
H       -0.50366008       0.79646438       0.48214060
H       -0.20809013       0.74971235       1.47653413
H       -0.63896561      -0.21439809       1.76146674
H       -1.17828476      -0.62131083       1.03634179
H        0.46589434       0.53187382       0.80843818
