12
Properties=species:S:1:pos:R:3 pbc="F F F"
H        0.00000000       0.00000000       0.00000000
H        0.45279220       0.75366068      -0.41837266
H        0.91000301      -0.09513843      -0.55460519
H        0.16998775      -0.01689900       0.95858204
H       -0.02886261       0.81483203       0.49302545
H        0.85455650       1.30943942       0.27282652
H        1.53207541       0.72624862       0.65872502
H        1.11244678      -0.06815040       1.15487611
H        1.57128012      -0.13859576       0.21311527
H        0.70562899       0.83977842       1.11264789
H        0.72839373      -0.53491485       0.29490972
H        1.46640050       0.66470569      -0.28417444
