17
Properties=species:S:1:pos:R:3 pbc="F F F"
H        0.00000000       0.00000000       0.00000000
H        0.36329272       0.89468008       0.34769225
H        0.77326828       0.49504808      -0.45859277
H        0.13200104      -0.11966649      -0.97262222
H        0.58138859       1.44938540      -0.48057795
H       -0.90044373       0.01781246      -0.49214602
H       -0.66463292       0.62771249       0.22929430
H       -1.11209452       0.96487433      -0.57176155
H        0.40632585       0.77412426      -1.24455023
H       -0.70752436       0.48747349      -1.32296574
H       -0.42394081       1.45554900      -1.13393092
H       -0.32089415       1.47787094      -0.02625656
H       -0.46166342       1.54906583      -0.05970609
H        0.37627408       1.43956351      -0.67814761
H       -0.12493008      -0.02352387      -1.06805766
H        0.17629749       0.37706891      -0.19269466
H       -1.21631241       0.76666415      -0.56257653
