21
Properties=species:S:1:pos:R:3 pbc="F F F"
H        0.00000000       0.00000000       0.00000000
H       -0.49101692      -0.19475858      -0.87994057
H        0.23154563       0.52778929      -0.78427577
H        0.92177969       0.15148079      -0.27465743
H        1.38327694      -0.64291823      -0.73212260
H       -0.23397863      -0.90665692      -0.26699838
H       -0.05537337      -1.03232050      -1.28246808
H        0.66351694      -1.27250898      -0.60460448
H        0.90947002      -0.75207382      -1.51717317
H        1.04700363       0.14933509      -1.15825653
H        0.18523009      -0.10491359      -1.65036786
H        0.62155932      -0.68881845       0.14368653
H        0.78324479      -0.72731143       0.03004551
H        1.05008507       0.16563942      -1.08016944
H       -0.57570708       1.26677847      -0.49668428
H       -0.27402729       0.93442631       0.42627576
H        0.18793881       1.46153700      -1.15413237
H       -0.54763061       1.90964603       0.30285117
H        0.22342032       2.49283695       0.18696345
H        1.06063938       1.90701604       0.09103680
H       -0.00894229       1.44372451      -2.16122937
