21
Properties=species:S:1:pos:R:3 pbc="F F F"
H        0.00000000       0.00000000       0.00000000
H        0.59380746      -0.49897972      -0.58861941
H        0.54742604       0.02697185      -1.46870327
H       -0.26222664      -0.19475858      -0.97294921
H        1.28023362       0.32542366      -0.81506461
H        0.81937021       1.00629103      -1.32621002
H       -0.54704410       0.61890221      -0.52029473
H        0.13515460       1.34145010      -0.77691376
H        0.94729209       1.18306613      -0.36017627
H       -0.15953130       0.70783925      -1.40368342
H        0.89378667       0.30761120       0.13554853
H        0.15666533       0.94348562       0.15495862
H        0.67953128      -0.41493669      -0.56111711
H        0.93116802       0.43148959      -0.00817158
H        0.77090228       0.55622131      -0.38684800
H        0.60677403       0.68549418      -0.33163804
H        0.71040261       0.60990006      -0.26722834
H       -0.46318117      -0.46317178       0.06132354
H       -0.46318117      -0.46317178       0.06132354
H       -0.46318117      -0.46317178       0.06132354
H       -0.46318117      -0.46317178       0.06132354
