12
Properties=species:S:1:pos:R:3 pbc="F F F"
H        0.00000000       0.00000000       0.00000000
H        0.36038706      -0.22961354      -0.93312520
H       -0.42804071      -0.77136850      -0.52449566
H       -0.29179853      -0.78826749       0.43946153
H        0.49145401      -0.23248869       0.59973085
H        0.47858649      -1.25844216       0.62377256
H        1.21134853      -0.63897550      -0.69574714
H        0.96604407       0.05067664      -0.11068712
H       -0.07846671      -1.57375073      -0.10993946
H        1.00435829      -1.47070646      -0.23375204
H        1.28324246      -0.69239140       0.32665300
H        0.32889631      -1.20789862      -0.97800136
