21
Properties=species:S:1:pos:R:3 pbc="F F F"
H        0.00000000       0.00000000       0.00000000
H       -0.13959605      -0.55577880       0.78719991
H        0.53277433      -0.32616526       1.52782094
H        0.75297475      -0.34306425       0.57951349
H        0.37464917       0.56174242       1.71478152
H       -0.12022960       0.98938280       0.24492942
H        0.44476470       1.20460999       0.91783166
H       -0.49993828      -0.02982724       1.59147120
H        1.06705928       0.46823376       1.15796471
H       -0.72994399       0.21783850       0.60645604
H       -0.51695484       0.88860339       1.26858342
H        0.79811621       0.67407429       0.17224859
H       -0.40461627       1.00719523       1.23089635
H        0.11123268      -0.08070213      -0.20639946
H        1.99802303       0.58624184       1.41765964
H        2.96909809       0.71062875       1.72566116
H        2.21654463      -0.16116667       2.08620501
H        1.71386242       0.06844687       2.95102406
H        1.56163406      -0.34593764       1.38977647
H        2.61116457       0.02513456       1.13401759
H        0.75461644      -0.01594634       2.80685091
