21
Properties=species:S:1:pos:R:3 pbc="F F F"
H        0.00000000       0.00000000       0.00000000
H        0.75986940       0.40936196      -0.45064643
H        0.37912494       0.84085155       0.39916202
H        0.06412140       0.17976892       1.04088128
H        1.54748940      -0.08961776      -0.17004910
H        0.89431536      -0.34618264       1.33664596
H        1.32971334       0.72467047       0.27317640
H        1.30173564      -0.84516239       0.60651660
H        0.66035956      -0.60825455      -0.36188710
H        0.32831809      -0.75366068       0.52178895
H        1.60810375      -0.04993165       0.79332185
H        0.95068192       0.67481697       1.19008505
H        0.85838902      -0.70186973      -0.18799508
H        0.25087121      -0.74763799       0.64293051
H       -0.71716124      -0.58582085       0.44251269
H       -0.71768486      -0.55622131       0.47840378
H       -0.12896815      -0.29195145       0.51427132
H        0.44524369       0.55822313       0.22873652
H        0.39601642       0.49507743       0.18152851
H       -0.10425413      -0.51248491       1.62463832
H       -0.11081094      -0.49098229       1.64737058
