16
Properties=species:S:1:pos:R:3 pbc="F F F"
H        0.00000000       0.00000000       0.00000000
H        0.69739223       0.29845181      -0.69129914
H        0.47465959       0.76199991       0.19686592
H        0.53206897      -0.70747125      -0.57250971
H        0.41956991       0.01781246       0.93646556
H        1.37547398       0.38366455       0.86081225
H        1.39059675       0.56724131      -0.22319603
H        1.96449018      -0.28658140       0.35370857
H        1.45292997      -0.27598166      -0.71091366
H        0.41185513      -0.90959448       0.49694225
H        1.91066337      -0.19158846       0.14431667
H        1.26223421      -0.56800842       0.92907065
H        1.28019023      -1.02277970      -0.03496325
H        0.43388802      -0.81647241       0.44546372
H        1.17350888       0.43367109       0.69900906
H        0.92979193      -0.17398059      -0.35872561
