21
Properties=species:S:1:pos:R:3 pbc="F F F"
H        0.00000000       0.00000000       0.00000000
H       -0.58002573       0.67024595       0.51736289
H       -0.01729441       1.01733637       1.23215127
H        0.08450711       0.14254874       0.99484867
H        0.62380815       0.55577880      -0.50003421
H       -0.29539958       1.57690287       0.30517882
H        0.51741469       1.41723394      -0.30076069
H        1.26743305       0.89128238       0.16202581
H        0.83130473       0.65933919       1.22470427
H        0.68156111       1.63031876       0.61504710
H        1.23101151       0.90998280       0.37295717
H       -0.32002658       0.95468998      -0.44198367
H        0.88587362       0.15686762       0.40854466
H       -0.05727179       1.12328553       1.25473332
H        0.46014276       1.64761066       0.60462606
H        0.60129988       1.99074686      -0.61200285
H        0.87978441       2.90233946      -0.23151758
H        1.61414349       2.15041590      -0.65647197
H        0.95997560       2.86743617      -0.21691886
H        2.40960383       2.33518696      -0.12622356
H        1.59308839       2.94990158      -0.21977818
