21
Properties=species:S:1:pos:R:3 pbc="F F F"
H        0.00000000       0.00000000       0.00000000
H       -0.02481474      -0.91159266      -0.47085762
H        0.84788865      -0.43977645      -0.18905686
H        0.68935925      -0.96226931      -1.13074279
H       -0.63711870      -0.19475858      -0.78068739
H        0.78125471       0.56614661      -0.38141751
H        1.24961209      -0.04086527      -1.04510128
H       -0.14206052       0.79576015      -0.76624274
H       -0.18506528      -0.78720576      -1.47692502
H       -0.16665918       0.65404052      -0.70151138
H        0.54234600      -0.20266765      -1.88275313
H       -0.27796352       0.21871728      -1.65806758
H        0.58855152       0.72473925      -1.44559717
H        0.57573128      -0.20872237      -1.87083483
H        1.52451348       0.14484394      -1.18450809
H        1.50456381       0.11146957      -1.19007301
H        1.38237619       0.13891840      -1.16278934
H        0.78806365      -0.30758387      -0.90075028
H        0.53619325      -0.12574404      -0.70101160
H        0.76881206      -0.26484811      -0.82063532
H        0.75502706      -0.24167842      -0.78176206
