12
Properties=species:S:1:pos:R:3 pbc="F F F"
H        0.00000000       0.00000000       0.00000000
H       -0.77018702      -0.01689900       0.59547228
H       -0.53161442      -0.73944688      -0.09324509
H       -0.84486711      -0.99621814       0.89326549
H       -0.05204159      -1.27936482       1.38246536
H       -0.06927492      -1.57781661       0.40065408
H        0.13878800       0.26419187       0.98196965
H        0.51112986      -0.42172241       1.35773921
H        0.85326225      -0.29845181       0.48599780
H        0.82031274      -1.24546444       0.78988391
H        0.43396193      -0.85745496      -0.13563894
H       -0.43050691      -0.36034375       1.50320828
