21
Properties=species:S:1:pos:R:3 pbc="F F F"
H        0.00000000       0.00000000       0.00000000
H       -0.02074104      -0.97334045      -0.01546210
H        0.51597565      -1.40482998      -0.77643245
H       -0.07327797      -0.49897972      -0.83289284
H        1.50762296      -1.17521644      -0.64514184
H        0.90844220       0.31530851       0.15288633
H        0.93032616      -0.58939558      -1.25903618
H        1.46718216      -0.52225345       0.35194287
H        0.86394292      -1.35179472       0.13342583
H        0.59915245       0.22707683      -0.73270863
H        1.49560618      -0.01704368      -0.62048578
H        0.50648415      -0.47909051       0.66345835
H        1.61452889      -0.15759993      -0.72483844
H        1.59602654      -0.49938130       0.19125456
H        0.54586756      -1.45066643      -0.61126524
H        1.09095263      -1.59735346       0.37981701
H        1.09095263      -1.59735346       0.37981701
H        1.66230810      -0.66421908      -0.02832204
H        1.04277337      -0.66922700      -2.16970658
H        1.04277337      -0.66922700      -2.16970658
H        1.01045334      -0.70102489      -2.16978121
