21
Properties=species:S:1:pos:R:3 pbc="F F F"
H        0.00000000       0.00000000       0.00000000
H       -0.43620220       0.58582085      -0.72101700
H       -1.36662316       0.33517727      -0.86085784
H       -0.71237230       0.01986876      -1.50939250
H       -0.98711216       0.26419187       0.09558250
H        0.13744596      -0.27252197      -1.03454971
H       -1.63633275      -0.48321664      -0.17500387
H       -1.39353037      -0.64414191      -1.16669106
H       -1.03125429      -1.25458515      -0.47863948
H       -0.09046066      -1.03674662      -0.35408169
H       -0.68424869      -0.60990006       0.32846090
H       -1.54462016      -0.39663395      -0.24374330
H       -0.52587557      -0.98333073      -1.28192043
H       -1.36699021      -2.08687353      -0.27147910
H       -2.31105232      -1.91901648       0.22319046
H       -2.12944317      -1.47924006       1.07270539
H       -1.50342071      -2.13685489       0.72152621
H       -1.72628021      -0.58455998       0.77215409
H       -2.02281904      -1.27614892      -0.52311170
H       -1.39540887      -2.18574524       0.53779781
H       -1.11753595      -1.31957114       1.13494289
