12
Properties=species:S:1:pos:R:3 pbc="F F F"
H        0.00000000       0.00000000       0.00000000
H        0.05110265      -0.33235219      -0.96966726
H        0.43944827      -0.85830379      -0.17853737
H        1.39363718      -0.67353284      -0.11984982
H        0.90812886      -0.70682299      -1.01844978
H        0.73736721       0.24884230      -1.35141850
H        0.25440407       0.67024595      -0.73442006
H        1.57883692       0.20534337       0.08414911
H        0.75834954      -0.15309769       0.57992446
H        1.16505432       0.79008889      -0.72268665
H        1.60302091      -0.04574037      -0.85065317
H        0.71407229       0.72254789       0.14611366
