12
Properties=species:S:1:pos:R:3 pbc="F F F"
H        0.00000000       0.00000000       0.00000000
H        0.07742673      -0.40936196      -0.88005048
H        0.38521224       0.58474553      -0.82086021
H       -0.25922966       0.91843063      -0.19325131
H       -0.11900204       0.26943702      -1.59183979
H       -0.34207815       1.10116804      -1.13739347
H       -0.97346771       0.29845181       0.12888366
H       -0.70873249      -0.58319080      -0.32503495
H       -1.11064935       0.49905056      -1.46054924
H       -1.44668412      -0.02741200      -0.63260317
H       -1.17639041       0.90061820      -0.65349340
H       -0.82424831      -0.41938007      -1.31048083
