21
Properties=species:S:1:pos:R:3 pbc="F F F"
H        0.00000000       0.00000000       0.00000000
H        0.88292891      -0.28314662      -0.29719594
H        1.29961395      -0.68205780       0.55166650
H        0.34028211      -0.83173102       0.37482330
H       -0.22301885      -0.24854022       0.91393507
H        1.50423217       0.22459912       0.26155362
H        0.93781370       0.83449918       0.76677930
H        0.53465223       0.61666071      -0.09232962
H        0.32832354       0.24975365       1.43813741
H       -0.11894029       0.66733736       0.62760764
H        1.24676204       0.03191516       1.19922721
H        0.68877417       0.60305333      -0.11242718
H        0.60328567      -0.61389256       1.28665459
H       -0.04812521       0.71011227       0.51031047
H        1.90135622       1.38032150       0.99944735
H        1.90135622       1.38032150       0.99944735
H        1.91918993       1.34559071       1.00375366
H        1.90135622       1.38032150       0.99944735
H        1.90892816       1.38032150       0.96548903
H        1.90892816       1.38032150       0.96548903
H        1.90135622       1.38032150       0.99944735
