12
Properties=species:S:1:pos:R:3 pbc="F F F"
H        0.00000000       0.00000000       0.00000000
H       -0.30729049       0.46966103      -0.79564559
H       -0.82374287      -0.19142160      -0.30137065
H       -0.84082836      -0.17452259      -1.27475822
H       -0.66938943      -1.02898359      -0.87407362
H        0.66119176      -0.69681674      -0.36138052
H        0.61014146      -0.61242354      -1.33005619
H        0.16476136      -1.36608422      -0.90380156
H        0.63711876       0.19475858      -0.78068733
H       -0.18141040      -0.84013265      -1.71427298
H       -0.30501893      -0.97931916      -0.03494843
H        0.08982635       0.12392922      -1.58801877
