12
Properties=species:S:1:pos:R:3 pbc="F F F"
H        0.00000000       0.00000000       0.00000000
H        0.15607943       0.96046287      -0.03480161
H       -0.92870152      -0.28314662      -0.07350037
H       -0.64036125       0.55110091       0.34751499
H       -1.17113459       0.00000000      -0.97300851
H       -1.35539663       0.56799990      -0.31316626
H       -0.30153221      -0.31530851      -0.87047106
H       -0.44097301       0.43835217      -1.47098136
H       -0.66712570       1.25349402      -0.24652073
H        0.00105309       1.09382510      -1.00899482
H        0.35898483       0.37727207      -0.78764874
H       -1.00301087       0.94645411      -1.13818598
