21
Properties=species:S:1:pos:R:3 pbc="F F F"
H        0.00000000       0.00000000       0.00000000
H        0.54628479      -0.64623839      -0.66938484
H        0.36035717       0.30082351      -0.79809237
H        0.99053246       0.42521042       0.00236428
H        0.77018714      -0.01689900       0.59547216
H        1.57194996       0.56235498      -0.95868504
H        0.30724746      -0.96807545       0.14748836
H        1.61266816       1.50100029      -1.21431756
H        2.29584527       0.64674819      -0.31299591
H        2.16131902       0.79192036      -1.59411860
H        2.48404503       1.71035099      -1.57426929
H        3.10587049       0.89387858      -1.57972622
H        0.86822444      -0.91465956      -0.71028525
H        3.13174820       1.52975297      -0.84280360
H        1.42464685       1.05611014      -0.16637737
H        3.28432417       0.61132234      -0.55773044
H        2.29584527       1.66446853       0.04529515
H        1.75670099       0.82690656      -0.20196421
H        2.05081749       2.08419108      -0.56935668
H        2.55586290       0.29294065      -0.85695153
H        1.45660257       0.10110910      -0.08494604
