21
Properties=species:S:1:pos:R:3 pbc="F F F"
H        0.00000000       0.00000000       0.00000000
H       -0.06750954       0.73181123       0.63871413
H        0.21866813       0.74871022      -0.29181135
H        0.01212267       1.52621031      -0.00619888
H       -0.56016499       1.62649131       0.73952144
H       -0.91048741       1.57581472      -0.16754365
H       -0.38078985       1.29659677      -0.92610168
H       -0.58841753       0.38285813      -0.80958426
H       -1.09254646       0.00440392      -0.06750113
H       -0.90401262       0.40348241       0.84070557
H       -1.38300121       0.93294716       0.47803825
H       -1.48169446       1.46682239       0.31689477
H       -1.31868327       0.75606215      -0.54938275
H       -0.55008096       1.42630816      -0.66490245
H       -0.05900073       0.95970368       1.01361215
H       -1.39287627       1.28017175       1.05460274
H       -0.60512865       0.99315739      -1.08132577
H       -0.53368068       0.38384303      -0.22837788
H        0.84731674       0.12336183      -0.04265641
H       -0.70745242       0.91656733       0.23568457
H        0.46145415       2.80650520       0.31665859
