21
Properties=species:S:1:pos:R:3 pbc="F F F"
H        0.00000000       0.00000000       0.00000000
H        0.50912565      -0.18477097       0.80914259
H       -0.41588813       0.11368084       1.13868761
H        0.08762622      -0.46950996       1.73402178
H       -0.85147041      -0.21886638       1.79178095
H        0.03505921      -0.96543115       0.12155000
H       -0.20294023      -1.00592303      -0.01606133
H       -1.15627146       0.21262321       0.91187352
H       -0.73453051      -1.02573133       1.99478996
H       -0.79952741      -0.56197894       0.44199461
H       -1.07002354      -1.45722091       1.12612140
H       -0.15956938      -1.57522905       1.45047963
H       -0.10398296       0.91324568       0.05922619
H       -0.75757551       0.86256903       0.77916348
H       -1.71066928      -0.56826228       1.24057555
H       -0.48934644       2.33276439       0.90792179
H       -0.58259630      -1.22760737       0.25261337
H       -1.28554535      -0.85140890       0.41162533
H       -0.58364373       1.95431018       1.80007720
H       -1.34063876      -0.78434271       1.13543463
H        0.23025946      -1.05425549       0.83855778
