21
Properties=species:S:1:pos:R:3 pbc="F F F"
H        0.00000000       0.00000000       0.00000000
H        0.05739931      -0.52769721       0.81627315
H        0.73294109       0.64286757       0.32069078
H        0.02867904       0.98938280       0.27133575
H       -0.17117700       1.17415380       1.20620370
H        0.61571056       1.20722127       1.01699066
H        0.33445260      -0.60990006       0.68134004
H        1.24675572       0.55391258       1.20466220
H        0.37910405       0.53827941       1.69703507
H        0.61460829      -0.06080198       1.72986650
H        0.83589923      -0.24048644       0.70122302
H       -0.15462962       0.26256114       1.67742431
H       -0.18644492       0.87587595      -0.69177341
H       -0.21303838      -0.37455902       1.11286998
H       -0.26892087       0.85048330      -0.69629782
H       -0.25383317       0.82406586      -0.73277217
H       -0.30460852       0.82406586      -0.71316195
H       -0.30144402      -0.55576533      -0.42739484
H        0.18117508       0.85834283       0.62813258
H       -0.25647843       0.90665692       0.24546479
H        0.24384274       0.93864530       0.08687136
