21
Properties=species:S:1:pos:R:3 pbc="F F F"
H        0.00000000       0.00000000       0.00000000
H        0.12256700       0.83228827       0.37498182
H       -0.24331933       0.22961354       0.97025621
H       -1.00504899      -0.15966894       0.13306491
H       -1.14039922       0.69316161       1.15381706
H       -0.55813223       1.57969677       0.19791390
H       -0.18879163       1.14677882       1.38360310
H        0.26315749       2.00442123       1.04668260
H       -0.45425588      -0.62932998       0.78429943
H       -1.20475769       0.40565878       0.40006769
H       -0.77511907       0.01598554      -0.49726525
H       -0.06021121       1.23260629      -0.56344271
H       -0.67163604       1.09791255       0.10868508
H       -1.67092741       0.74657750       0.27688462
H        1.08473027       1.38970661       1.06831658
H        0.93873858       1.88868630       1.89158237
H        0.32778218       1.36854684       0.31214309
H        0.21803570       0.43535373      -0.54086995
H        0.23305374       1.48977518       2.52102876
H        0.35871285       1.21844029       2.40894532
H       -0.08950097       1.81753004       0.76024765
