21
Properties=species:S:1:pos:R:3 pbc="F F F"
H        0.00000000       0.00000000       0.00000000
H        0.63883960       0.60990006      -0.40983751
H        0.59289008      -0.41450709      -0.45229414
H        0.00814737       0.96923625      -0.09260495
H        1.17129135      -0.06034589      -0.97604370
H        0.09737933      -0.95566529      -0.36131003
H       -0.75719023       0.01598554      -0.52416152
H        0.11262516      -0.51588881      -1.22988653
H       -0.06287121      -0.83127838      -1.36737740
H        0.34438562       0.28674459      -1.35527456
H        0.64804375      -0.24511686      -1.77612662
H       -0.19761842       0.62214577      -0.97874802
H        1.31730437      -1.01847756      -1.17916965
H       -0.16204041      -0.17877305       0.28897423
H       -0.63011515      -0.18077224      -1.10761654
H        1.14518034      -0.64002335      -2.05962777
H        0.20134562      -0.24111217      -2.00157714
H        0.47853065      -1.60429835      -1.09795082
H        0.53302550      -1.46275151      -0.98978889
H        1.60741055      -0.68796068      -1.26440251
H        0.39518279      -1.33684015      -1.98700523
