21
Properties=species:S:1:pos:R:3 pbc="F F F"
H        0.00000000       0.00000000       0.00000000
H        0.46564069       0.84879911      -0.10382564
H        0.00000000       0.66108263       0.71486413
H        0.47281700      -0.25064358       0.81343883
H        1.49021018       0.90221500      -0.07684632
H        0.66606086      -0.68549418       0.18579951
H        1.22093582       1.14725089       0.52369297
H        0.90044379       0.01781246      -0.49214596
H        1.70776224      -0.40155572       0.08793545
H        1.03857899       0.95563090       0.84320807
H        1.32765126      -0.05212235      -0.18113336
H        1.30958092       0.18913287       1.04685640
H        0.82492250       1.01907980       0.91405934
H        1.44379258       0.08170861       0.80491793
H        1.12567377       0.35085919       0.56785727
H        1.27883804       0.44542369       0.57179952
H       -0.35147920       1.28028870      -0.55043024
H       -0.35147920       1.28028870      -0.55043024
H       -0.33530268       1.28028870      -0.57883132
H        1.36245489       0.47034490      -0.08021042
H        1.37364411       0.50170863      -0.04797873
