21
Properties=species:S:1:pos:R:3 pbc="F F F"
H        0.00000000       0.00000000       0.00000000
H        0.90784711      -0.05341591       0.47569352
H        0.16259594       0.43148959       0.91689873
H       -0.67973077       0.25064358       0.65054190
H       -0.31405258       0.58299577       1.55006695
H        0.57712042      -0.20489670       1.37887359
H        0.07139850      -0.97457576       1.39219034
H        0.94047695      -1.02525234       0.95607632
H       -0.51933599      -0.92115986       0.55463225
H       -0.28898871      -1.20418930       0.45906520
H       -0.91610712      -0.21901745       1.47005737
H       -0.11898914      -0.26580334       1.98544180
H        0.37151635      -0.93392980       0.15761840
H       -0.90035242      -0.42508090       0.57248986
H       -0.71824318      -0.69681674       0.22780931
H       -0.20637506      -0.61657858       0.59030646
H       -0.43699044      -0.72569746       0.19120060
H        0.58809763      -2.00129509      -0.14945593
H        0.54249126      -0.21441555       1.76481199
H        1.02981925      -0.11670643       1.07814217
H       -0.43907228      -0.79461014      -0.35195324
