21
Properties=species:S:1:pos:R:3 pbc="F F F"
H        0.00000000       0.00000000       0.00000000
H        1.00909960       0.15966894       0.09771150
H        0.27685022      -0.42615193       0.51478308
H       -0.62214309       0.06889614       0.50689399
H       -0.12491414       0.12962687       1.20598221
H        0.71731561       0.99139994      -0.31598708
H       -0.54859829       1.03813243       0.56375539
H       -0.03204636       1.15125418       1.17472267
H        0.81423634       0.12962687       1.10671806
H        0.32849035       0.21679783      -0.75968456
H       -0.66324681       0.77136850       0.13571379
H        0.37838995       0.27456480       1.51572371
H       -0.56341028       0.23369683      -0.36944276
H        0.77259731       1.33602512       0.65851617
H        0.89235133       1.07173061       0.70714009
H        0.10550433       0.81535470      -1.25149000
H        0.61799824       0.06981860       0.48383510
H        0.53449202       0.83225369      -0.37756497
H       -0.51552427       0.75919950      -2.13199973
H       -0.67724901       0.69763690       0.43846709
H        0.09054840       0.74138707      -1.30394030
