21
Properties=species:S:1:pos:R:3 pbc="F F F"
H        0.00000000       0.00000000       0.00000000
H       -0.19310522      -0.77460212      -0.55746114
H       -0.79698223      -0.49897972       0.25278342
H        0.49411148      -0.83173102      -0.11017387
H       -0.22131461      -0.14329264       0.88251054
H        0.37350845      -0.80437529       1.27901554
H       -0.81966865      -1.43762505      -0.00507557
H        0.39961421      -1.32677913       0.78387392
H       -0.04290962      -1.04994953       1.18944025
H       -0.14066309      -1.93660474       0.48280925
H        0.81094313      -1.01043868       0.49509805
H        0.19141197      -0.91692185      -0.38328862
H       -0.63497812      -1.84698701       0.85885328
H        0.68988764      -0.16019164       0.53974849
H        0.27192444      -1.79083180       0.27704424
H       -0.39521793      -1.05475855       0.94398260
H        0.07406372       1.10956514      -0.84182572
H       -0.13652611      -0.54742593       0.41553977
H       -0.34920013      -0.83050966       0.56711006
H        1.09987402      -1.04003930       0.46332774
H        1.13431096      -1.02503598       0.48882747
