21
Properties=species:S:1:pos:R:3 pbc="F F F"
H        0.00000000       0.00000000       0.00000000
H       -0.04850490       0.68549418       0.68978679
H       -0.04848194       0.31530851      -0.91994077
H       -0.15272307       0.57950038       0.06629461
H       -0.09891321       0.66845536      -0.95474178
H        0.20782501       0.41936818       0.97214532
H        0.87552023       0.26784137      -0.10031511
H        0.39772949       1.23444772       0.24299105
H        0.41298211       1.01949954       0.16313548
H        1.25500798      -0.21126670      -0.34376949
H        1.25500798      -0.21126670      -0.34376949
H        0.58833200       0.37455416       0.17167294
H        0.36183065       0.07467854       0.30890989
H        0.45510638       0.48010424      -0.23190284
H        0.17123531      -0.02045700       2.01410770
H        0.17123531      -0.02045700       2.01410770
H        0.17123531      -0.02045700       2.01410770
H        0.17123531      -0.02045700       2.01410770
H        0.17123531      -0.02045700       2.01410770
H       -0.33356300       0.23547709      -0.04776329
H       -1.37375522      -0.15339333      -1.26467943
