21
Properties=species:S:1:pos:R:3 pbc="F F F"
H        0.00000000       0.00000000       0.00000000
H        0.45934626      -0.55622131       0.73002923
H       -0.86632252       0.39891118       0.37905034
H       -0.02038103       0.38201219       0.86087847
H       -0.62711066      -0.67075121      -0.07185302
H       -0.52844101      -0.92164785       0.18826216
H       -0.98387486       0.50002027       0.78462452
H       -0.44243005      -0.47182810       1.08743405
H       -0.25367305      -1.02822912       1.07230091
H        0.22539093      -1.05126941      -0.13802385
H       -1.17325664      -0.45675603       0.61858392
H       -0.22851865      -0.06776625       0.91437942
H       -0.60682344      -1.46063137       0.15846047
H        0.20124117      -1.24847507       0.18002528
H        1.69387138      -0.29154938       1.32263982
H        1.69387138      -0.29154938       1.32263982
H        1.69387138      -0.29154938       1.32263982
H        1.69387138      -0.29154938       1.32263982
H        1.69387138      -0.29154938       1.32263982
H        1.69387138      -0.29154938       1.32263982
H        1.69387138      -0.29154938       1.32263982
