21
Properties=species:S:1:pos:R:3 pbc="F F F"
H        0.00000000       0.00000000       0.00000000
H       -0.72715116       0.63587439       0.12237607
H       -1.02197397      -0.22896999      -0.21405302
H        0.15274149       0.33235219      -0.95892441
H       -1.03875148      -0.41374096      -1.16989768
H       -0.61695695       1.50466013      -0.16294216
H        0.21643811       1.25401652       0.27373999
H       -0.22168159      -0.71219277      -0.62524450
H       -1.03336334       0.56557822      -1.47686493
H       -1.70446789       0.41409743      -0.78785616
H       -0.99382132       1.42322063      -0.91453952
H       -0.66422093       0.38065806      -1.70091641
H       -0.09357822       1.57470143      -1.25317907
H       -0.46797028       2.03824949      -0.41754901
H       -1.27806807      -0.43470168      -1.00182867
H       -1.24404693       1.08973801      -1.37066150
H       -1.46547997       0.65185994      -0.42803556
H        0.27672088      -0.28351083      -0.08173054
H        0.30923951       0.47941440      -0.30887520
H        0.56646580       1.27624965      -0.52613562
H        0.53339744       0.87788469      -0.83524144
