21
Properties=species:S:1:pos:R:3 pbc="F F F"
H        0.00000000       0.00000000       0.00000000
H        0.58115071      -0.52769721      -0.57607329
H        0.73843396      -1.35942817      -0.09488058
H        0.81116873      -0.92660838       0.34114289
H       -0.07965726      -0.97728503       0.73091447
H        0.91692883      -0.31530851       0.08878656
H       -0.02801818      -1.54419911      -0.66625768
H        0.98528266      -0.26419187      -0.11289144
H        0.45780498      -1.27573681      -0.09090346
H        0.68500471      -1.27554989       0.31298134
H        0.47493187      -1.13759732       0.17545873
H       -0.58197159      -0.01175189      -1.26587200
H       -0.58197159      -0.01175189      -1.26587200
H       -0.58197159      -0.01175189      -1.26587200
H       -0.58197159      -0.01175189      -1.26587200
H       -0.58197159      -0.01175189      -1.26587200
H       -0.58197159      -0.01175189      -1.26587200
H       -0.58197159      -0.01175189      -1.26587200
H       -0.58197159      -0.01175189      -1.26587200
H       -0.58197159      -0.01175189      -1.26587200
H       -0.58197159      -0.01175189      -1.26587200
