21
Properties=species:S:1:pos:R:3 pbc="F F F"
H        0.00000000       0.00000000       0.00000000
H       -0.46163812      -0.66108263       0.54582143
H        0.95032912      -0.08439321       0.19445659
H        0.38495100      -0.87984765      -0.16044225
H        0.52647972      -1.65121615       0.50158811
H        1.21028948      -0.96572196       0.39881259
H       -0.48329884      -0.52769721       0.66031724
H        0.77072167      -1.12526464       1.34837306
H        1.32472110      -0.54794133       1.03008664
H        0.59191370      -0.84639311       1.68372536
H        0.46634069       0.55166692      -0.57142609
H        0.27998003      -0.36676371      -0.83565283
H        0.76430064      -1.30732489      -0.62374336
H        1.11337984      -0.08420748      -0.92507136
H        1.38811278       0.30102333      -0.38281286
H        0.65125418       0.14887542       0.69213301
H       -0.15194827      -1.14216363       1.03780007
H       -0.06634045      -0.86547899       0.05965072
H        0.54925281      -1.00282383       0.25285780
H        0.49355006      -0.92932874       0.10699773
H        0.46892869      -0.99413300      -0.87803888
