21
Properties=species:S:1:pos:R:3 pbc="F F F"
H        0.00000000       0.00000000       0.00000000
H        0.15274149      -0.33235219      -0.95892441
H        0.31555092       0.68549418      -0.61529356
H       -0.60924560       0.28351083      -1.41082668
H       -0.05498615       0.96046287       0.15016147
H       -0.53353548       0.55622131       0.67770320
H        0.11713791       1.33891702      -0.73029673
H       -0.82369709       1.08827341      -0.73855299
H       -1.09810925       1.16020024      -1.19692945
H       -0.12664616      -0.29342160      -0.87923980
H        0.58232796       0.29128850       0.92548144
H       -0.85145384       0.61626559       0.05187476
H       -0.54081887       1.42439210      -0.37659174
H        0.23530138       0.92941594      -1.79814804
H        1.16668677       1.01383638       0.48985171
H        1.30489051       1.01383638       1.02114618
H       -1.18844604       0.74099231      -0.01872528
H        0.58918190       0.48788482       1.53540301
H        0.57558346       0.09768492      -1.42332470
H       -0.06973076       0.86633903       0.92657834
H        0.33194566       0.45761508       0.27271342
