21
Properties=species:S:1:pos:R:3 pbc="F F F"
H        0.00000000       0.00000000       0.00000000
H        0.30968034       0.89379078      -0.23086154
H       -0.27748376       0.56143856      -1.00423360
H        0.87810671       0.31530851       0.27851421
H        0.30644804      -0.86484438      -0.32587519
H        0.77594870      -0.25494432       0.27049050
H        1.12209821      -0.52278566      -0.53992867
H        1.46668768       0.35390371      -0.13250053
H       -0.76318336       0.44343045      -0.16863149
H       -0.15947492      -0.15966894      -1.00119793
H        0.11653693       0.62710363      -1.39253449
H        0.64556277       0.87597835      -1.20049524
H        0.68084967      -0.33889282      -1.12369859
H       -0.06026441       1.02662122       0.16879159
H        0.87952393       0.72449756      -0.26755548
H       -2.05815887       0.10784140       0.50990969
H       -2.41058111       0.16125731       1.47233844
H        0.64872772       0.22494482      -1.60369945
H       -2.66286182       0.89306855       0.88168824
H       -2.96183252       0.87434262       1.91821766
H        1.05058396       0.55864990      -1.10669971
