21
Properties=species:S:1:pos:R:3 pbc="F F F"
H        0.00000000       0.00000000       0.00000000
H       -0.45111397       0.18477097       0.84286225
H        0.40957868       0.72254789       0.60290438
H        0.79482800       0.64286757      -0.09106958
H        0.72351885       0.12438690      -0.71719748
H        0.23548332       0.90731883       1.08746922
H       -0.53058314      -0.39997455      -0.06040108
H        0.60688066       1.13791561       0.78809309
H       -0.52017361       0.43758741      -0.65344864
H       -0.43736291       0.50164950      -0.64564580
H        0.40793291       1.04281747      -0.78756493
H        0.20355844       0.73428696      -1.27012062
H       -0.03311640      -0.48551315      -0.77708000
H        0.07613271      -0.24205270      -1.56988978
H        0.12630129      -0.55337536      -1.39869618
H        0.42808706      -0.39575624      -1.34674191
H       -0.10237098      -0.17387789      -0.99519396
H       -0.16819161      -0.12625667      -1.01734936
H        0.99215448      -0.28365615      -0.61072803
H        1.00515759      -0.27338174      -0.60557443
H        0.44642356       0.25130326       0.03952104
