21
Properties=species:S:1:pos:R:3 pbc="F F F"
H        0.00000000       0.00000000       0.00000000
H        0.87747955       0.49504808      -0.19565487
H        0.57084650      -0.29935095       0.37725890
H        0.12834851      -0.96807545       0.31572214
H       -0.29618850      -0.87984765      -0.29360065
H        0.62467253      -1.31133723      -0.43200457
H        0.07097536      -0.84778917      -1.16129637
H        1.09643221      -1.19768906       0.06389785
H        0.97275853      -1.07740271      -0.72841227
H        0.01136756      -0.00315827      -0.72966129
H        0.71776104      -0.05339015      -1.09866786
H        1.30692255      -0.03090349      -0.96525061
H        0.77600741       0.41620991      -0.09437895
H        1.93115819       0.28285354      -1.78745103
H       -0.26248387      -0.28630489      -1.62010741
H        0.91201448      -0.04096043      -0.81207120
H       -0.22275469      -0.34784791      -0.09029770
H        0.86308277      -0.41091651      -0.35428256
H       -0.31833661       1.03557158      -1.03430271
H       -0.31833661       1.03557158      -1.03430271
H       -0.31833661       1.03557158      -1.03430271
