21
Properties=species:S:1:pos:R:3 pbc="F F F"
H        0.00000000       0.00000000       0.00000000
H        0.41703188       0.87984765      -0.00365971
H        0.77672428       0.05341591      -0.66870779
H       -0.30854025       0.85764241      -0.47178000
H        0.52138478       0.66813046       0.11247826
H       -0.66516334      -0.16007793      -0.43724802
H       -0.03125006      -0.00859714      -1.16062093
H       -1.33157551      -0.45670420      -0.66156399
H        0.52976382      -0.16442259      -1.58501434
H       -1.31419921      -0.45670420      -0.70775735
H        0.34917289       0.30020419      -0.03523195
H        0.36265653       0.30020419      -0.07107714
H       -1.11958575       1.52796042      -1.12190092
H       -1.11958575       1.52796042      -1.12190092
H       -1.11958575       1.52796042      -1.12190092
H       -1.11958575       1.52796042      -1.12190092
H       -1.11958575       1.52796042      -1.12190092
H       -1.11958575       1.52796042      -1.12190092
H       -1.11958575       1.52796042      -1.12190092
H       -1.11958575       1.52796042      -1.12190092
H       -1.11958575       1.52796042      -1.12190092
