21
Properties=species:S:1:pos:R:3 pbc="F F F"
H        0.00000000       0.00000000       0.00000000
H       -0.33100656      -0.58582085      -0.77496612
H        0.27553239       0.12325907      -1.05313361
H        1.06863976      -0.51960850      -0.94812894
H        0.17168051      -0.08811891      -0.69791949
H       -0.37976652      -1.13874435      -1.70018256
H        0.24412459      -0.02062878      -0.80936694
H        0.60660434      -0.27183914      -1.09155869
H       -0.96164012      -0.55555356      -1.18117142
H       -1.89408994      -1.53824389      -1.69081068
H       -1.25812054      -2.00564957      -2.45638680
H       -1.28411770      -2.00564957      -2.42509604
H       -1.23501623      -2.08396292      -2.38573694
H       -1.28039217      -1.96490204      -2.47556114
H       -1.25812054      -2.00564957      -2.45638680
H       -1.23479056      -2.04535246      -2.43630123
H       -1.23479056      -2.04535246      -2.43630123
H       -1.18506956      -2.12143469      -2.39349484
H       -2.18250060      -1.17412174      -1.87583601
H       -2.18250060      -1.17412174      -1.87583601
H       -2.18250060      -1.17412174      -1.87583601
