21
Properties=species:S:1:pos:R:3 pbc="F F F"
H        0.00000000       0.00000000       0.00000000
H        0.54069358       0.79439902       0.36042264
H       -0.14445913       1.09285080       1.06385434
H       -0.49267104       1.21085894       0.16225386
H        0.12040380       0.23817772      -0.39276943
H       -1.04509044       1.28760934       0.61190701
H       -0.68298447       0.33101130      -0.20883882
H       -0.98928452       0.51404220      -0.40444314
H        0.04132652       1.46515024       0.74650967
H       -0.29139274       0.05412102       0.63968253
H        0.32413602       0.78593224       0.45627692
H       -0.56414533      -0.93526179       0.64686471
H       -1.31462717      -0.78378099       0.04529059
H       -1.38283420      -0.83445764       1.01525998
H       -0.66523528      -0.90154427       0.62326884
H       -0.00885886      -0.17782700      -1.20429206
H       -0.26186582      -0.76967907      -0.43284902
H       -0.51813793       1.39923859      -0.13521934
H       -0.43891889       0.43712604       1.04745853
H       -0.55913973      -0.81370139      -0.71346056
H       -0.25565314       0.59352070      -0.89081097
