21
Properties=species:S:1:pos:R:3 pbc="F F F"
H        0.00000000       0.00000000       0.00000000
H       -0.29363519      -0.58319080       0.72230726
H        0.03510494       0.22961354       0.99968451
H       -0.96933353       0.05067664      -0.07671611
H       -1.04681945      -1.16901159       0.34435055
H       -0.24135709       0.66539121       0.30472887
H       -1.52716231      -0.50510216       0.49599481
H       -0.13284904      -1.00934267       0.78308487
H       -1.63199806       0.03286418       0.70679039
H       -0.24135709       0.68229020       1.27826643
H       -1.17807162       0.57643622       0.71457851
H       -1.52716231      -0.09574020       1.37944472
H       -1.07271504      -0.67988551       1.27783012
H       -0.13618714      -0.18649548       1.56547463
H       -1.01106310      -0.02232736       1.55248153
H       -0.93543494      -0.17859483      -0.06892347
H        0.28653824       0.11956894       1.14370167
H       -0.52660978      -0.17705441       0.80730313
H        0.00530291      -0.65019858       0.69674039
H       -0.67751890      -0.58319080       0.38589844
H        0.71355462       0.23709527      -0.53194308
