21
Properties=species:S:1:pos:R:3 pbc="F F F"
H        0.00000000       0.00000000       0.00000000
H        0.05110265      -0.33235219      -0.96966726
H        0.48318818      -0.79590029      -0.16235745
H        0.54058748      -0.26820308       0.65391570
H        1.24897981      -0.77808785       0.52070177
H        1.48365998       0.21129495       0.38152283
H        0.62028939       0.72254789       0.38273937
H        1.22008049      -0.74522364      -0.79677260
H        1.82928133      -0.07347029      -0.05452979
H        1.26669669       0.65908068      -0.61219901
H        0.93451852       0.07700977      -0.97741979
H        0.79990536       0.31051537      -1.25134039
H        1.63287175      -0.23413211       0.12456322
H        1.17514682       0.64271647      -0.34808075
H        1.65194833      -0.60040319      -1.40908551
H        1.42771006       0.50869155      -1.41893077
H        0.87930095       0.43593302      -1.03521347
H        0.63306403       0.13023734      -1.00255227
H        0.20829621      -0.28682172      -0.20139486
H        0.39792579      -0.31102121      -0.25918561
H        0.38631880      -0.28682172      -0.29269302
