21
Properties=species:S:1:pos:R:3 pbc="F F F"
H        0.00000000       0.00000000       0.00000000
H        0.93511528      -0.39891118      -0.14054634
H        1.14244223      -0.66310304       0.82926917
H       -0.00431281      -0.76476324       0.05167976
H        0.58868939      -1.24629378       0.28035456
H        0.91169733       0.31016874       0.52632564
H       -0.58493781      -0.39891118       0.74299502
H       -0.12487289      -1.15257192       1.15335679
H       -0.13070232      -0.86857224       1.46490192
H       -0.05545068      -1.01397181       0.99246556
H        1.34556270      -1.33068705      -0.32634252
H        1.05457735      -0.21752846       1.33204389
H        0.73554677      -1.37602520       1.24702001
H        1.02841198      -0.98129117       0.64394879
H        0.98560596      -2.45099354      -1.16908789
H        1.13362503      -0.64347422       1.93187761
H        0.97523540      -2.34966493      -1.28520477
H        0.14986789      -0.16183907       0.73884022
H        0.98678780      -2.27590561      -1.36206317
H        1.08776772       0.31219107       1.56049538
H        1.55990601      -1.97580206       2.47334504
