21
Properties=species:S:1:pos:R:3 pbc="F F F"
H        0.00000000       0.00000000       0.00000000
H       -0.43620220       0.58582085      -0.72101700
H       -1.31913114       0.30267423      -1.01821303
H       -0.46513003      -0.13710222      -1.17739737
H        0.08993413      -0.01781246      -1.02221251
H       -0.97984660       0.23642495       0.14298576
H       -0.60655880      -0.77741408      -1.34163415
H       -1.22620070      -0.66656202      -1.01576591
H       -0.30413413      -0.53494358       0.18454558
H       -0.49602276      -1.17081797      -0.52742589
H        0.05538452      -0.88790768      -0.23851702
H       -1.61461020      -0.62473267      -0.69274050
H       -0.62562394      -1.25375974      -0.91357529
H       -1.59978127      -0.41201547      -0.06568575
H       -0.97393173       0.42312202       0.20814821
H       -0.87699461      -0.56644529      -0.00828065
H       -1.48518074       0.91594392      -0.08183777
H       -1.40979111       0.85889554      -0.16047037
H       -1.32943237       0.00552797      -1.60508907
H       -1.32943237       0.00552797      -1.60508907
H       -0.42279476      -0.76947063      -0.87918526
