21
Properties=species:S:1:pos:R:3 pbc="F F F"
H        0.00000000       0.00000000       0.00000000
H       -0.73394406      -0.63587439       0.07106813
H       -0.29289356      -0.51786631      -0.78893733
H        0.26808691      -0.84879911       0.39462695
H        0.57633209      -1.66245985      -0.04241076
H        0.44888744      -1.04381788      -1.26481533
H        0.65768814      -0.12538725      -1.01793814
H        1.26376081      -0.10757479      -0.18987870
H        0.90459228      -0.21783850       0.28691480
H        0.93386519      -0.57112288      -1.04405427
H        1.08862281      -0.96521723       0.34593862
H       -0.19388112      -1.35912633      -0.60489863
H        1.13948834      -1.08322537      -0.61922854
H        0.15293008      -1.34314084       0.24821579
H        0.57497674      -0.44138548      -0.48479453
H       -0.26003805      -1.34495425      -0.39869741
H       -0.34199566      -0.60711199      -0.31745589
H        1.03333330      -0.68749356      -0.11109732
H        0.81338930      -0.63291919      -0.26144773
H        0.03938472      -1.05394888       1.15603709
H        0.00234830      -0.87804514       1.03002167
