21
Properties=species:S:1:pos:R:3 pbc="F F F"
H        0.00000000       0.00000000       0.00000000
H        0.97460508       0.08895500       0.30912116
H        0.33345664       0.12438690      -0.96263105
H        0.44026834       0.77460212       0.39270389
H        0.93775469      -0.37066117      -0.29699218
H       -0.16570735       0.85764241      -0.53880841
H        1.16230547       0.98482430       0.20653173
H        0.43768209       1.51077580      -0.29508546
H        1.34926391       0.21334189      -1.07901990
H        1.07624483       1.28327608      -0.77165234
H        0.52078664       1.60505092      -0.69187850
H        1.61849248       0.45887274      -0.54751885
H        0.87156552       0.07163846      -0.92233562
H        1.57716918       0.20058428      -0.37847844
H        0.43916672       0.62802887      -1.33550715
H        0.40286052       0.87728179       0.43936116
H        0.71555901       1.22621286      -0.74545383
H        0.67593938       1.15268135      -0.74183488
H       -1.01212811      -0.12438690      -0.11596751
H       -0.20686245       0.49147612      -0.48527390
H       -0.95024699       0.88028693      -0.50446260
