21
Properties=species:S:1:pos:R:3 pbc="F F F"
H        0.00000000       0.00000000       0.00000000
H        0.14728610      -1.02954066      -0.28719354
H        0.76818985       0.33235219       0.59392792
H        0.26659527      -0.21306825      -0.89749026
H        0.99476171      -0.93561614      -0.92946059
H        0.09247738      -0.43901631       0.63548762
H        1.25013852       0.05376667      -1.02552438
H        1.11765075      -0.45682877       0.59047711
H        1.86063874      -0.41518098      -0.55060506
H        1.57621014       0.40291506      -0.23730475
H        1.07229984      -1.32799244       0.04235163
H        1.61666846      -0.63117570       0.56334400
H        1.39558470      -0.24332333       0.60760802
H        1.82850385       0.04836711       0.36449838
H        0.63465595       0.51731479      -0.34756553
H        1.44335580      -0.52507442      -0.21451017
H        0.06831121       0.03572592       0.66169745
H        1.31980848       0.21886298       0.35586625
H        1.03170967      -0.19139153      -0.04058236
H        1.46687031       0.92667675      -0.05108103
H        0.50587112      -0.03435212       0.37866849
