21
Properties=species:S:1:pos:R:3 pbc="F F F"
H        0.00000000       0.00000000       0.00000000
H        0.68725604      -0.43977645       0.53135377
H        0.65648413       0.52565467       0.65405929
H        1.15944695       0.11600235       1.17649436
H       -0.03382701       0.72041327      -0.08001393
H        0.21285662      -0.11131775      -0.52209044
H        0.93852705       0.95002681       0.15478180
H        1.65047479       0.49445656       0.42567807
H        0.92734039       0.38785523      -0.81987739
H        1.92590523      -0.38441965       0.43293080
H        1.06390393      -0.80562854      -0.35046965
H        1.72482896      -0.23293886       1.37350655
H        1.40766263      -0.68116504      -0.23472267
H        1.10249650      -0.67839670       0.52918398
H        1.06643724       0.38894102       0.17684022
H        1.24683118      -1.04659963       1.13364160
H        2.37844872      -0.49713072       0.62764615
H        0.73140550       0.66425806      -0.83856070
H        1.14175725       0.10264038      -0.29700139
H        1.07979023      -0.19013126       0.45521092
H        0.57192743      -1.08336878       0.56874019
