21
Properties=species:S:1:pos:R:3 pbc="F F F"
H        0.00000000       0.00000000       0.00000000
H       -0.90169489       0.25064358      -0.26867270
H       -0.10452302       0.46966103      -0.84649527
H       -1.03417134      -0.76697290      -0.28385159
H        0.40852356      -0.30170748      -1.28819406
H        0.56591409      -0.27774748      -0.63384885
H       -0.03689742      -1.19638753      -1.05480242
H        0.97303963      -1.07200062      -0.92109025
H       -0.68754542      -0.38235915       0.66274750
H       -0.38085276      -1.42600107      -0.11549616
H        0.07163012      -1.06014895       0.72992414
H       -0.51295233      -1.47989511      -0.54540551
H        0.32293126      -0.45864618       0.07924759
H       -0.97425652      -0.81915843      -0.38861281
H       -0.42101029      -1.41275597      -0.87748164
H       -0.30474973       0.05741730       1.44257116
H       -0.32632631       0.02700281       1.46897602
H       -0.91431677      -0.68062395      -0.17865056
H        0.46283096      -2.32672405      -0.03380194
H        0.46283096      -2.32672405      -0.03380194
H        0.46283096      -2.32672405      -0.03380194
