7
Properties=species:S:1:pos:R:3 pbc="F F F"
H        0.00000000       0.00000000       0.00000000
H        0.15607943       0.96046287      -0.03480161
H        0.18207751       0.21783850      -0.93137270
H       -0.55035621       0.80898207      -0.68753678
H        0.48765856       1.11162925      -0.69511187
H        0.74670684       0.40260947      -0.15993619
H       -0.24040797       0.70907992      -0.62247133
