7
Properties=species:S:1:pos:R:3 pbc="F F F"
H        0.00000000       0.00000000       0.00000000
H       -0.12270200      -0.91159266      -0.45526573
H       -0.94034469      -0.12438690      -0.39192289
H       -1.04448164      -0.76011187      -0.72992301
H       -0.87833387      -0.89898902       0.19476885
H       -0.15592533      -0.26311463       0.34258828
H       -0.32795507      -0.03756398      -0.86348230
