21
Properties=species:S:1:pos:R:3 pbc="F F F"
H        0.00000000       0.00000000       0.00000000
H       -0.47398776      -0.23709527       0.75329894
H       -0.16726869       0.74222386       0.73983234
H       -1.08052671       0.47198465       0.47513145
H       -0.86124682      -0.14357847      -0.24940354
H       -0.52421880       0.82449698      -0.30005831
H       -0.15803155       0.77382034       0.60071898
H       -1.81650496       0.21944848       0.86076927
H       -2.46431971       0.39939380       0.31657940
H       -1.71749258       0.42678657      -0.11341482
H       -1.79446721       0.19076356       0.88177478
H       -1.74987543       0.33688015      -0.06140763
H        0.29300416       0.54457551       0.70628989
H       -1.23546672       1.06607866       1.01230776
H       -1.01032734       1.12468112      -0.09338808
H       -0.89083052       0.92379832       0.57452840
H       -0.91617751       0.93756521       0.55402422
H       -1.27691436       1.73792946       0.87520868
H       -1.32643628       1.72170079       0.89819658
H       -1.33097088       1.73792946       0.84378791
H       -1.78801179       0.58765674       2.13794208
