6
Properties=species:S:1:pos:R:3 pbc="F F F"
H        0.00000000       0.00000000       0.00000000
H        0.50421435      -0.31530851      -0.77097952
H       -0.19744503      -1.04785943      -0.40332410
H       -0.49122927      -0.21783850      -0.81197357
H        0.47321010      -0.72467047       0.11192614
H       -0.49122927      -0.58369058       0.14691961
