21
Properties=species:S:1:pos:R:3 pbc="F F F"
H        0.00000000       0.00000000       0.00000000
H       -0.30820453      -0.91843063       0.09775501
H        0.55663162      -0.77136850      -0.38532564
H       -0.03092897      -0.52595156       0.88076228
H        0.86479479      -0.24367130       0.37271920
H        0.52791417      -1.29906571       0.43245909
H        0.82363844      -0.31974655       0.51495218
H        0.71668077      -0.97184652       0.08876100
H       -0.85974169      -0.04519808       0.11382674
H       -1.21967351       0.49718362      -0.45879799
H        0.01335053       0.41888687      -0.76059878
H       -1.20282078       0.49718362      -0.50131941
H       -0.86558360       0.01507208      -0.06850501
H       -0.02984688       0.75703698       0.42445165
H       -0.04193603       0.77134770       0.39676082
H       -0.65443665      -0.12691635       0.47023121
H        0.20235889      -0.22192572       0.70157659
H       -0.04440528      -2.24930024      -0.22548887
H        0.07717896      -2.21715546      -0.23403448
H        0.04296723      -2.24930024      -0.12753373
H        0.06529763      -2.21715546      -0.24735489
