6
Properties=species:S:1:pos:R:3 pbc="F F F"
H        0.00000000       0.00000000       0.00000000
H        0.88292891      -0.28314662      -0.29719594
H        0.95019096      -0.64899874       0.65933526
H        0.23043036      -0.92909771       0.17815782
H        0.07175645      -0.31919765       0.92038780
H        0.77671003       0.32675344       0.45433608
