6
Properties=species:S:1:pos:R:3 pbc="F F F"
H        0.00000000       0.00000000       0.00000000
H        0.87909138       0.39891118       0.34841394
H        0.78479409       0.02045697       1.24056935
H        0.68197346      -0.59047163       0.53706729
H       -0.12892029      -0.31530851       0.91215187
H        0.08397304       0.67407429       0.74150014
