6
Properties=species:S:1:pos:R:3 pbc="F F F"
H        0.00000000       0.00000000       0.00000000
H       -0.32983679       0.96807545      -0.08579928
H        0.62619567       0.28314662       0.68975925
H       -0.31290096       0.53379023       0.74751836
H        0.59571320       0.68492883      -0.19184670
H        0.29267472       1.21088040       0.63571990
