6
Properties=species:S:1:pos:R:3 pbc="F F F"
H        0.00000000       0.00000000       0.00000000
H        0.05321160       0.83173102       0.50344110
H        0.28848386       0.84879911      -0.37997118
H       -0.52155960       0.55622131      -0.68696243
H       -0.85562766       0.49937883       0.16156799
H       -0.56847179       1.34384716      -0.10816565
