6
Properties=species:S:1:pos:R:3 pbc="F F F"
H        0.00000000       0.00000000       0.00000000
H       -0.13959605      -0.55577880       0.78719991
H        0.77328265      -0.25732699       1.14900494
H        0.84803402       0.21233404       0.29936290
H        0.20911747       0.41342422       0.86590022
H        0.65138721      -0.68549418       0.23206307
