6
Properties=species:S:1:pos:R:3 pbc="F F F"
H        0.00000000       0.00000000       0.00000000
H       -0.33764970       0.29845181       0.92208624
H       -0.84313875      -0.25732699       0.30269003
H       -1.22403574       0.56264365       0.47728726
H       -0.87164998       0.18418944      -0.34773251
H       -0.30523133       0.79408950       0.15749297
