6
Properties=species:S:1:pos:R:3 pbc="F F F"
H        0.00000000       0.00000000       0.00000000
H       -0.04850490       0.68549418       0.68978679
H       -0.62742841       0.40936196      -0.62194639
H       -0.65470511       1.07960796       0.15480983
H       -0.82348210       0.09022516       0.36919242
H        0.14698476       0.95566529      -0.34412664
