6
Properties=species:S:1:pos:R:3 pbc="F F F"
H        0.00000000       0.00000000       0.00000000
H        0.17388797      -0.66108263       0.69339287
H        0.15081879      -0.90665692      -0.32138422
H       -0.75860554      -0.61471456      -0.31617650
H       -0.75860554      -0.43993121       0.58814013
H       -0.54008406      -1.36212301       0.35236880
