6
Properties=species:S:1:pos:R:3 pbc="F F F"
H        0.00000000       0.00000000       0.00000000
H        0.35866648      -0.83756196      -0.47241095
H       -0.51147330      -0.92651695       0.06449470
H       -0.03048696      -0.43977645       0.86817515
H        0.81290197      -0.36790094       0.24949589
H        0.39704195      -1.23274529       0.41431546
