6
Properties=species:S:1:pos:R:3 pbc="F F F"
H        0.00000000       0.00000000       0.00000000
H        0.38154608      -0.49897972      -0.74397767
H       -0.09780285      -1.02162731       0.00601536
H        0.49336848      -0.49393010       0.57180065
H        0.99454522      -0.03038201      -0.19453412
H        0.86678207      -1.02162731      -0.15631944
