6
Properties=species:S:1:pos:R:3 pbc="F F F"
H        0.00000000       0.00000000       0.00000000
H       -0.46163812      -0.66108263       0.54582143
H        0.33233517      -0.11800810       0.90757269
H        0.08813424      -0.95433736      -0.17185318
H        0.36910075      -1.11400628       0.80225533
H        0.85287160      -0.47113872       0.16506547
