6
Properties=species:S:1:pos:R:3 pbc="F F F"
H        0.00000000       0.00000000       0.00000000
H        0.63772744       0.77136850       0.22719663
H       -0.34870055       0.85764241       0.44292367
H        0.45898795       0.48822188      -0.68710148
H       -0.55199432       0.67024595      -0.54717141
H        0.15090671       1.33702099      -0.32283926
