6
Properties=species:S:1:pos:R:3 pbc="F F F"
H        0.00000000       0.00000000       0.00000000
H       -0.96783787       0.05067664       0.09371616
H       -0.21538772      -0.93864530       0.14357595
H       -1.22729492      -0.77897638       0.20581329
H       -0.51067060      -0.36585209       0.81159824
H       -0.71251750      -0.38242400      -0.56126708
