7
Properties=species:S:1:pos:R:3 pbc="F F F"
H        0.00000000       0.00000000       0.00000000
H        0.88791460       0.34709048      -0.19798161
H        0.77090466      -0.15188923       0.62990052
H        0.82042348       0.85403383       0.82736087
H        0.12211698       0.87304205       0.23819827
H       -0.04047030       0.29781252       0.88031012
H        0.91984063       0.69418097       0.71117723
