21
Properties=species:S:1:pos:R:3 pbc="F F F"
H        0.00000000       0.00000000       0.00000000
H        0.58115071      -0.52769721      -0.57607329
H        0.84213477      -1.13759732       0.13664699
H       -0.21471304      -0.96747363      -0.22785139
H        0.13961399      -0.71683002       0.64375114
H        0.93198830      -0.24455059       0.28694570
H       -0.06577516      -1.05320406      -0.20487657
H       -0.32634455      -0.74286360       2.06930542
H       -0.07001987      -0.79489946       2.12697697
H       -0.12131268      -0.84684122       2.11514997
H       -0.26853716      -1.00147724       2.05880904
H       -0.27452633      -0.84684122       2.07957315
H       -0.22256562      -0.89862627       2.08797264
H       -0.41095942      -1.05241907       1.99809551
H       -0.32297936      -0.89862627       2.05901003
H       -0.32297936      -0.89862627       2.05901003
H       -0.12131268      -0.84684122       2.11514997
H       -0.27452633      -0.58681881       2.07957315
H       -0.32466093      -0.84684122       2.06415462
H       -0.27552733      -0.63876057       2.08304358
H       -0.31794679      -1.00147724       2.04361343
