6
Properties=species:S:1:pos:R:3 pbc="F F F"
H        0.00000000       0.00000000       0.00000000
H       -0.37664786      -0.36585209      -0.88182342
H       -0.35520151       0.49897972      -0.75690955
H       -1.20651686       0.02931869      -0.70454943
H       -0.84554547       0.46966103       0.11194722
H       -0.73412192      -0.53626204      -0.05842733
