6
Properties=species:S:1:pos:R:3 pbc="F F F"
H        0.00000000       0.00000000       0.00000000
H        0.63848275      -0.52769721      -0.51179713
H        0.12575272       0.01781246      -1.01842666
H       -0.69452947      -0.39891118      -0.64173406
H       -0.08386636      -0.92660838      -0.09704405
H       -0.02161813      -0.95468998      -1.07342970
