7
Properties=species:S:1:pos:R:3 pbc="F F F"
H        0.00000000       0.00000000       0.00000000
H       -0.51304650      -0.77136850      -0.44169885
H       -0.24805522      -1.24102950       0.36901623
H        0.23980966      -0.38268667       0.80417454
H        0.58655089      -0.83756196      -0.08815767
H       -0.64196682      -0.45605999       0.47045302
H        0.42645758      -0.65336043      -0.21483545
