21
Properties=species:S:1:pos:R:3 pbc="F F F"
H        0.00000000       0.00000000       0.00000000
H        0.65604281      -0.46966103       0.54505712
H       -0.32193321      -0.73385286       0.70964581
H        0.63901907      -0.55405426      -0.42481345
H       -0.27049768      -0.86484438      -0.35628089
H        0.45960343      -1.35989249       0.16831759
H       -0.31965822      -0.89634442       0.64914834
H        2.00798607      -0.03346220       1.02670002
H        2.62820578      -0.80483067       1.29807067
H        2.90012670       0.12257624       1.64346802
H        2.88347173       0.34041473       0.69461089
H        3.46858883      -0.43364507       0.99478281
H        2.65900731      -0.56624222       0.41956562
H        2.08046579      -0.33964986       0.99684960
H        1.57517219       0.38653883       1.36488819
H        1.85696197       0.11336306       1.22907197
H        3.44979072      -0.31954843       1.23370266
H        3.03286433       1.50145960      -0.24328917
H        3.01590228       1.38345146      -1.20964694
H        2.22814846       1.29905820      -0.64362353
H        2.64439154       0.46732718      -0.93176591
