21
Properties=species:S:1:pos:R:3 pbc="F F F"
H        0.00000000       0.00000000       0.00000000
H        0.79402828      -0.31375703       0.65969908
H        0.94606090      -0.19574893      -0.29477519
H        0.07189763      -1.01057374       0.44453007
H        0.21150506      -0.80564898      -0.48585263
H        1.01794195      -0.95715785       0.05023190
H        0.00000000      -0.86484438       0.44733104
H       -0.24721965      -1.34035587      -1.81011093
H       -0.47206926      -0.88371837      -1.81875610
H       -0.27762622      -0.93566012      -1.89788938
H       -0.32233316      -1.03901124      -1.86808217
H       -0.12364298      -1.03901124      -1.92918825
H       -0.18617722      -0.23851776      -1.00965226
H        0.74803662      -0.50270963      -0.67682946
H        0.73883653      -0.53696954      -0.68010712
H        0.71344185      -0.53696954      -0.61603326
H        0.67644489      -0.26272443       0.08606112
H        0.53157580       0.12051222       0.13105738
H        0.39529416       0.21314037       0.17490947
H        0.32137230       0.12051222       0.23885942
H       -0.54410422      -0.35038078      -1.34037101
