6
Properties=species:S:1:pos:R:3 pbc="F F F"
H        0.00000000       0.00000000       0.00000000
H       -0.53245163       0.67024595      -0.56620628
H       -1.15520525      -0.12415308      -0.75176454
H       -0.55108714      -0.71811944      -0.43435398
H       -0.12614286      -0.08341473      -1.02985442
H       -0.99922484       0.01369178       0.02573943
