8
Properties=species:S:1:pos:R:3 pbc="F F F"
H        0.00000000       0.00000000       0.00000000
H        0.54069358       0.79439902       0.36042264
H       -0.46100456       0.88335401       0.56539047
H       -0.47796664       0.76534593      -0.40096724
H        0.34404969       0.74098313      -0.64546096
H        0.02304971       1.51694691      -0.15269843
H       -0.15275937       0.06969321       0.12835276
H       -0.25420213       0.91878593      -0.27675286
