6
Properties=species:S:1:pos:R:3 pbc="F F F"
H        0.00000000       0.00000000       0.00000000
H        0.47219095      -0.55577880       0.64514065
H        0.16402760      -0.02808160       1.40318537
H       -0.49644434      -0.40936196       0.73077130
H       -0.33294344       0.58663297       0.74860936
H        0.61310166       0.36879447       0.67373633
