6
Properties=species:S:1:pos:R:3 pbc="F F F"
H        0.00000000       0.00000000       0.00000000
H        0.41703188       0.87984765      -0.00365971
H        0.98951960       0.15966894      -0.22063684
H        0.14599179       0.49897972       0.82326579
H        1.12911570       0.71544772       0.56656307
H        0.76010233      -0.24021757       0.62866628
