21
Properties=species:S:1:pos:R:3 pbc="F F F"
H        0.00000000       0.00000000       0.00000000
H       -0.77018702      -0.01689900       0.59547228
H       -1.05921221      -0.85446095       0.07751650
H       -0.21197683      -0.65976655       1.16857493
H       -0.54940164      -1.41342723       0.65262830
H        0.27330744      -1.43123972       0.03931236
H        0.61332637      -0.61471456       0.54706556
H       -0.31096941      -0.73007405      -0.61384767
H       -0.31037796      -0.81652516      -0.53927326
H       -0.35829151      -1.92693436       0.37025750
H       -0.47786504      -2.86749554      -0.14469326
H       -1.06012106      -2.45813370      -0.80911905
H        0.25976568      -2.48904133      -0.65531474
H        0.27853435      -1.67538047      -0.12083858
H        0.35819483      -1.63139892      -0.10026056
H        0.79606873      -2.01101160      -0.39787254
H        1.42430258      -0.86725074       0.36623919
H        1.42430258      -0.86725074       0.36623919
H        1.42430258      -0.86725074       0.36623919
H        1.42430258      -0.86725074       0.36623919
H        0.81070215      -2.03194594      -0.39084801
