8
Properties=species:S:1:pos:R:3 pbc="F F F"
H        0.00000000       0.00000000       0.00000000
H       -0.47398776      -0.23709527       0.75329894
H       -0.42038047       0.74222386       1.05559707
H        0.00000000       0.93864530       0.25885502
H       -1.40922308      -0.06923817       0.24213725
H       -1.33454299       0.91008097       0.53993046
H       -0.78704363       1.13969445      -0.29723495
H       -0.84193778       0.22961354      -0.54013175
