8
Properties=species:S:1:pos:R:3 pbc="F F F"
H        0.00000000       0.00000000       0.00000000
H        0.88791460       0.34709048      -0.19798161
H        0.77965075      -0.06227148      -1.07477272
H        0.45500523       0.77529049      -1.57117879
H       -0.08025049      -0.46354809      -0.91214412
H       -0.46862501       0.40943840      -1.31352937
H       -0.36637324       0.81366080      -0.38959938
H        0.45227110       1.18465245      -0.60050923
