8
Properties=species:S:1:pos:R:3 pbc="F F F"
H        0.00000000       0.00000000       0.00000000
H       -0.56912082      -0.52595156       0.67290437
H       -0.80348700       0.46354809      -0.43915340
H        0.09474161       0.77136850       0.67032725
H       -0.50356495       0.21844506       1.37773967
H       -0.71010375       1.17262805       0.22156301
H       -1.38324594      -0.09267321       0.19945553
H       -1.27878141       0.62780702       0.95403785
