8
Properties=species:S:1:pos:R:3 pbc="F F F"
H        0.00000000       0.00000000       0.00000000
H        0.05110265      -0.33235219      -0.96966726
H        0.67411071      -1.07976067      -0.64322364
H        1.48984885      -0.55206347      -0.70778376
H        0.60949147      -0.76445216       0.27572459
H        1.44282842      -0.17863131       0.15047538
H        0.79060179       0.55577880      -0.11882618
H        0.93760121       0.14019036      -0.96105254
