8
Properties=species:S:1:pos:R:3 pbc="F F F"
H        0.00000000       0.00000000       0.00000000
H        0.13252793       0.60990006       0.74734145
H       -0.46377745       0.77136850      -0.49317852
H        0.40906391       1.17027974      -0.85696673
H        0.47212669       1.66532779       0.03984666
H        0.88507062       0.39891118      -0.33293223
H       -0.34307158       1.32758975       0.36085418
H        0.99695444       0.95468998       0.45868182
