8
Properties=species:S:1:pos:R:3 pbc="F F F"
H        0.00000000       0.00000000       0.00000000
H        0.12256700       0.83228827       0.37498182
H       -0.68477142      -0.12438690       0.75428098
H        0.74009603      -0.26419187       0.66013968
H        0.03986478      -0.45673910       1.40063095
H        0.83912915       0.54914165       0.97032005
H        0.11111388       0.51133633       1.73391366
H       -0.58627844       0.80978811       1.04261470
