8
Properties=species:S:1:pos:R:3 pbc="F F F"
H        0.00000000       0.00000000       0.00000000
H        0.36329272       0.89468008       0.34769225
H        0.42808345       0.19475858      -0.91221571
H        1.32504272      -0.23673101      -0.66200644
H        0.74886382       1.07460618      -0.64570320
H        0.86341524      -0.52595156       0.17667225
H        1.23036695       0.32284755       0.48154515
H        1.60313022       0.54068601      -0.39118320
