9
Properties=species:S:1:pos:R:3 pbc="F F F"
H        0.00000000       0.00000000       0.00000000
H        0.30968034       0.89379078      -0.23086154
H       -0.24994391       0.98274577      -1.08656693
H       -0.53285092      -0.01689900      -0.81476694
H        0.76228261      -0.43977645      -0.41663268
H        0.28789639      -0.45667544      -1.26676977
H        0.68944347       0.39212367      -1.52437592
H        1.17308533       0.44553959      -0.62073809
H        0.53763640       0.51919770      -1.55364752
