9
Properties=species:S:1:pos:R:3 pbc="F F F"
H        0.00000000       0.00000000       0.00000000
H       -0.50007260       0.47200781      -0.61275923
H       -0.53729963       0.34709048       0.73409688
H       -1.00352168       0.98296487       0.16281617
H        0.20303601       1.21941638      -0.59424472
H       -0.24875352       1.71446443       0.18301809
H        0.25962868       1.09974980       0.82877147
H        0.67522693       0.66363758       0.05089593
H       -0.40762863       0.39066988       0.82291597
