11
Properties=species:S:1:pos:R:3 pbc="F F F"
H        0.00000000       0.00000000       0.00000000
H       -0.02074104      -0.97334045      -0.01546210
H        0.77030754      -1.13300943      -0.64955348
H        0.71503544      -0.01689900      -0.66068119
H        0.65579432      -0.98877251      -0.65703756
H       -0.12331229       0.20664798      -0.69748908
H       -0.75832802       0.26554245       0.23726082
H       -0.89063692      -0.68879491       0.09656425
H       -0.44600764      -0.70000893      -0.84548181
H       -0.93884528       0.51618600      -0.68613088
H       -1.20360065      -0.41291171      -0.80755150
