8
Properties=species:S:1:pos:R:3 pbc="F F F"
H        0.00000000       0.00000000       0.00000000
H        0.63883960       0.60990006      -0.40983751
H        1.05519724      -0.26678932      -0.74358284
H       -0.55436790       0.15148079      -0.78599662
H        0.08124232       0.73428696      -1.26244354
H        0.39964625      -0.79461014      -0.39615455
H        0.46802163      -0.14240241      -1.57609510
H       -0.24966323      -0.69862372      -1.09769130
