21
Properties=species:S:1:pos:R:3 pbc="F F F"
H        0.00000000       0.00000000       0.00000000
H       -0.21671417       0.94706190      -0.06457304
H       -0.95501620      -0.19475858      -0.32146075
H        0.10001954       1.00321710      -1.09445345
H        0.32509667       0.05615520      -1.07265913
H       -1.18479788       0.71744835      -0.31639728
H       -0.68797672      -0.17694612      -1.31226671
H        0.30128327       0.05341591      -0.97964233
H        0.36836821       0.08895500      -0.95379025
H       -0.09126642       0.01507208       0.86348033
H       -0.09126642       0.01507208       0.86348033
H       -0.09126642       0.01507208       0.86348033
H       -0.09126642       0.01507208       0.86348033
H       -0.09126642       0.01507208       0.86348033
H       -0.09126642       0.01507208       0.86348033
H       -0.09115646       0.04519808       0.86243999
H       -0.97643948       1.18845046       0.66252828
H       -0.97643948       1.18845046       0.66252828
H       -0.97643948       1.18845046       0.66252828
H       -0.97643948       1.18845046       0.66252828
H       -0.97643948       1.18845046       0.66252828
