8
Properties=species:S:1:pos:R:3 pbc="F F F"
H        0.00000000       0.00000000       0.00000000
H        0.52815789      -0.26419187       0.83939010
H       -0.29813141       0.60990006      -0.69799751
H        0.55513084       0.31144825      -0.21199971
H        0.61951011      -0.17478335      -0.65878361
H        0.66570103       0.69627100       0.75781906
H        1.39706993       0.16857380       0.39080939
H        1.38413501      -0.05677525      -0.06761199
