5
Properties=species:S:1:pos:R:3 pbc="F F F"
H        0.00000000       0.00000000       0.00000000
H        0.12529835      -0.08895500      -1.01474690
H        0.25529975       0.72751743      -0.40663809
H       -0.58926105       0.46682382      -1.37332129
H       -0.26294440       0.24898532      -0.48218459
