21
Properties=species:S:1:pos:R:3 pbc="F F F"
H        0.00000000       0.00000000       0.00000000
H        0.85755634      -0.19475858       0.52914101
H        0.10796480      -0.79461014      -0.55226731
H        0.87078035       0.50205815      -0.22424835
H       -0.03172670      -0.15174258       0.23547089
H       -0.15697543      -0.60983920       0.36627901
H        0.51455855      -1.12216544       0.25419953
H        0.36338669      -0.24960005      -0.06331539
H        0.36135727      -0.05416316       0.47176164
H        0.52548826       0.12684909      -0.01119147
H        1.02251530      -1.64811707      -0.46599409
H        0.97128916      -1.93863785      -0.16781217
H        1.11435843      -1.91656446       0.00421123
H        0.48565304      -0.74637049      -0.07434672
H       -0.75645798      -0.82064372      -1.77786744
H       -0.74606144      -1.02797246      -1.76312697
H       -0.91823059      -0.87267959      -1.64351821
H       -0.79784453      -0.71654069      -1.74533689
H       -0.71291363      -0.82064372      -1.80744886
H       -0.84029883      -0.76857656      -1.71421325
H       -0.79893714      -0.82064372      -1.74677610
