7
Properties=species:S:1:pos:R:3 pbc="F F F"
H        0.00000000       0.00000000       0.00000000
H        0.45934626      -0.55622131       0.73002923
H       -0.32741770       0.22961354      -0.94519788
H        0.61550164       0.31400675      -0.71750981
H        0.87012684      -0.01689900      -0.43664008
H       -0.18151090      -0.60689795      -0.00126755
H       -0.01005207      -0.30844614       0.96561003
