5
Properties=species:S:1:pos:R:3 pbc="F F F"
H        0.00000000       0.00000000       0.00000000
H        0.02715597      -1.02162731       0.09414954
H        0.47173038      -0.73181123      -0.43587124
H       -0.64918178      -0.25025880       0.06445473
H        0.28959328      -0.09877801      -0.14486742
