13
Properties=species:S:1:pos:R:3 pbc="F F F"
H        0.00000000       0.00000000       0.00000000
H        0.42017129      -0.49897972       0.72286665
H        0.57347733      -0.77460212       0.13847838
H        1.11859727      -1.04244351       0.83089662
H       -0.48947707       0.39891118      -0.80907726
H       -0.72272420       0.03305909       0.12101513
H       -1.27876842       0.41672364      -0.15331382
H        1.20578361      -0.16259587       1.23872936
H       -1.18243480      -0.60089290      -0.06111696
H       -0.95529270       0.33775240      -0.18526360
H        1.62607324      -0.71881717       0.48553717
H       -0.79746556       0.14651561      -0.64976215
H        1.55950499      -0.50097871       1.43220282
