6
Properties=species:S:1:pos:R:3 pbc="F F F"
H        0.00000000       0.00000000       0.00000000
H        0.63883960       0.60990006      -0.40983751
H        0.58502960      -0.41450709      -0.44174996
H        0.16116385       0.86484438      -0.41729039
H        1.26178432       0.35686141      -0.42392942
H        0.35334212       0.04155290      -0.27104294
