21
Properties=species:S:1:pos:R:3 pbc="F F F"
H        0.00000000       0.00000000       0.00000000
H        0.15274149      -0.33235219      -0.95892441
H        0.52368683       0.63587439      -0.51911145
H        0.01166695       0.05226156       0.03922266
H        0.78495264       1.07551348      -0.72853774
H        0.78885210       1.06362772      -0.74740100
H        0.01104963      -0.13872772      -0.22712567
H        0.00289327      -0.48176992      -0.61618638
H        0.78641808       0.16717255      -1.86304832
H        0.78641808       0.16717255      -1.86304832
H        0.78641808       0.16717255      -1.86304832
H        0.78641808       0.16717255      -1.86304832
H        0.73909152       0.16717255      -1.87144089
H        0.83342063       0.16717255      -1.85300016
H        0.78641808       0.16717255      -1.86304832
H        0.78641808       0.16717255      -1.86304832
H        0.78641808       0.16717255      -1.86304832
H        0.78641808       0.16717255      -1.86304832
H        0.78641808       0.16717255      -1.86304832
H        0.78641808       0.16717255      -1.86304832
H        0.78641808       0.16717255      -1.86304832
