21
Properties=species:S:1:pos:R:3 pbc="F F F"
H        0.00000000       0.00000000       0.00000000
H        0.97460508       0.08895500       0.30912116
H        0.86058331       0.08895500      -0.55209368
H        0.52986121       0.37845421       0.72393394
H        0.10771057      -0.49823517       1.05032086
H        1.04362047      -0.86408722       0.84163755
H       -0.45033798       0.23449653       1.04542375
H        0.52848214      -0.05042642       0.98533690
H        0.10032248      -0.03543190       0.12603259
H        0.33898807       0.28371358      -1.41426039
H        0.13706434       0.21334189      -1.26929104
H        0.93951368       0.06292140      -2.04978943
H        0.83426243       0.06292140      -2.05163670
H        0.21645719       0.21334189      -1.34136760
H       -0.04726374       0.14237091      -0.07640010
H        2.24534893      -0.33193862      -0.56424588
H        2.24534893      -0.33193862      -0.56424588
H        2.24534893      -0.33193862      -0.56424588
H        2.25912189      -0.28362328      -0.56436676
H        2.24534893      -0.33193862      -0.56424588
H        2.24534893      -0.33193862      -0.56424588
