10
Properties=species:S:1:pos:R:3 pbc="F F F"
H        0.00000000       0.00000000       0.00000000
H       -0.61304885      -0.15966894      -0.80746567
H       -0.71559155       0.36585209       0.63828284
H       -0.54193395      -0.31933787       0.20385635
H       -0.25985053      -0.31964210       0.11822641
H        0.29087502      -0.30296159      -0.91103518
H       -0.14612857      -0.56715345      -0.02077991
H       -0.43123743      -0.32037377      -0.31095764
H       -0.04915094      -0.41482460      -0.56193781
H       -0.59794950       0.03932199       0.99819732
