7
Properties=species:S:1:pos:R:3 pbc="F F F"
H        0.00000000       0.00000000       0.00000000
H       -0.39122835      -0.01598554      -0.83368021
H        0.55267596       0.36585209      -0.78359777
H        0.16050658       1.30795574      -0.67420095
H       -0.46435344       1.00564182      -0.76845515
H        0.38991380       1.02254081      -1.23536289
H        0.28187287      -0.36585209      -0.91652811
