5
Properties=species:S:1:pos:R:3 pbc="F F F"
H        0.00000000       0.00000000       0.00000000
H        0.24483983      -0.86484438      -0.37437752
H        0.05361497      -0.12438690      -1.01733828
H        0.20738403      -0.05391848      -1.08509803
H        0.43746448      -0.60990006      -0.62024808
