9
Properties=species:S:1:pos:R:3 pbc="F F F"
H        0.00000000       0.00000000       0.00000000
H       -0.21671417       0.94706190      -0.06457304
H       -0.52924901       0.08895500      -0.87481797
H        0.82112420       1.15180814       0.14778972
H        0.05459899       0.83649963       0.65875018
H       -0.77436018      -0.10580358       0.10258341
H       -1.43320489       0.13963163      -0.51654929
H       -0.02912587       1.53026235      -0.13840649
H       -0.77429217      -0.23882258      -1.12537384
