6
Properties=species:S:1:pos:R:3 pbc="F F F"
H        0.00000000       0.00000000       0.00000000
H       -0.26684549      -0.92909771       0.11675546
H        0.58520794      -0.43404964      -0.17004776
H        0.19393799       0.22703299      -0.76832741
H        0.92192531       0.03227441      -0.07160121
H        0.00641289      -0.11100167       0.43984461
