11
Properties=species:S:1:pos:R:3 pbc="F F F"
H        0.00000000       0.00000000       0.00000000
H       -0.13959605      -0.55577880       0.78719991
H        0.56608897      -0.15686762       1.41664612
H       -0.28498691      -0.59664404       1.59079361
H        0.00979960       0.28969890       1.12064588
H       -0.86232984       0.01689900       0.45184347
H       -1.54603171       0.76430750       0.61693782
H       -1.51894033      -0.26164591       0.61383373
H       -1.14296126       0.74649507      -0.32674694
H       -2.02229834       1.15585709      -0.24160035
H       -1.24261725       0.57266629      -0.24844253
