21
Properties=species:S:1:pos:R:3 pbc="F F F"
H        0.00000000       0.00000000       0.00000000
H       -0.30820453      -0.91843063       0.09775501
H       -0.30461174      -0.96807545      -0.15285775
H       -0.08976253      -0.99825430       0.22080505
H       -0.01541187       0.60504943      -0.00459218
H       -0.04597273      -1.33960938       0.06767235
H        0.00897461       0.60413754       0.03578699
H        0.01291147      -1.21226633      -0.24499376
H        0.23672839      -1.16665506      -0.33563939
H        0.55774063      -1.00936961      -0.44707555
H        0.72803181      -0.83975357      -0.54273564
H        0.75095922      -0.80773228      -0.55982763
H        0.79407322      -0.74080992      -0.59196842
H        0.79240495      -0.70598930      -0.63517857
H        0.81104565      -0.67031801      -0.65012068
H        0.81104565      -0.67031801      -0.65012068
H        0.82870924      -0.63383907      -0.66427952
H        0.82107222      -0.59659642      -0.70688838
H       -0.29601416      -1.40394521       0.09197605
H        0.83699715      -0.48073912      -0.77337182
H       -0.08583719      -1.53167295      -0.12389276
