8
Properties=species:S:1:pos:R:3 pbc="F F F"
H        0.00000000       0.00000000       0.00000000
H       -0.33764970       0.29845181       0.92208624
H       -0.26289830      -0.17120922       0.07244420
H       -0.52605081       0.00000000      -0.04163331
H       -0.27064058      -0.71916473       1.03736937
H       -1.08662689      -1.03447318       1.46492982
H       -0.31654584      -0.47869438       1.67974603
H       -0.20897102      -1.01757419       1.88623202
