21
Properties=species:S:1:pos:R:3 pbc="F F F"
H        0.00000000       0.00000000       0.00000000
H       -0.77018702      -0.01689900       0.59547228
H       -0.63034511      -0.73944688      -0.11985469
H       -1.17291570      -0.94430590       0.77168202
H       -0.38869911      -1.47200310       0.53801346
H        0.39774042      -1.38304806       1.19140756
H        0.85755634      -0.19475858       0.52914101
H        0.37620473      -0.40372890       1.49766588
H        0.31651109       0.12438690       0.96833491
H        0.80817676      -0.50635868       1.53240860
H       -0.73716772      -0.26754257       1.53576386
H       -0.58899623      -1.38408232       1.41487372
H       -0.14226276      -0.06757563       1.33790350
H        0.20549160      -0.58199286       0.00645649
H        0.23420894      -1.10969007       0.82424122
H       -0.44841719      -1.19664025       1.57399344
H       -0.86157954      -0.73955035       0.75469524
H       -0.10057434      -0.65270066       0.75934196
H       -1.34357643      -0.95979643       1.57306099
H       -1.43691742      -1.04090321       0.97485578
H       -1.67041612      -0.74328756       1.10776269
