21
Properties=species:S:1:pos:R:3 pbc="F F F"
H        0.00000000       0.00000000       0.00000000
H        0.90784711      -0.05341591       0.47569352
H        0.21868512       0.49504808       0.87202525
H       -0.64812636       0.37845421       0.62029469
H       -0.30711839       0.64264607       1.55155182
H        0.67132312      -0.00273927       1.41885269
H        0.18876874      -0.83447027       1.57190728
H        0.33914745      -1.01924121       0.62781680
H       -0.48265970      -0.71008337       0.80572486
H       -0.74083811      -0.43555909       1.39863038
H       -0.90789390      -0.12052551       1.41502786
H        0.15785387      -0.26894659       1.62980437
H        0.51333153      -0.99397701       0.82758772
H       -0.54248112      -0.65108645       0.31531537
H        0.22106233      -1.00467384       0.32540619
H        0.23068881      -0.18418163      -0.35405600
H        0.31948519      -0.40281183      -0.35850072
H       -0.08642215      -0.52317441       0.85396636
H        0.19426861      -0.27900177       1.29994977
H       -0.08239844       0.10781381       0.09245092
H       -0.22310907       0.33271068      -0.43086261
