21
Properties=species:S:1:pos:R:3 pbc="F F F"
H        0.00000000       0.00000000       0.00000000
H        0.15274149      -0.33235219      -0.95892441
H        0.45999488       0.81366080      -0.27280354
H       -0.61276680       0.42724946      -0.99253428
H       -0.16367590       0.92909771       0.24093266
H        0.67549807      -0.05341591      -0.77082622
H        0.42721677       1.51228857      -0.26778656
H        0.92418766       0.89757401      -0.92236263
H       -0.49491900       1.28489184      -0.44127631
H       -0.45653439       1.32192957      -0.51455629
H       -0.95014155       0.11800810      -0.17710456
H       -0.65450710       1.80417037      -0.39894652
H        0.13513815       2.02200890       0.12742561
H        0.13513815       2.02200890       0.12742561
H        0.13513815       2.02200890       0.12742561
H        0.13513815       2.02200890       0.12742561
H        0.13513815       2.02200890       0.12742561
H        0.11617905       2.02200890       0.15481347
H       -0.75702941       1.61993694      -1.56423688
H       -0.75702941       1.61993694      -1.56423688
H       -0.75702941       1.61993694      -1.56423688
