21
Properties=species:S:1:pos:R:3 pbc="F F F"
H        0.00000000       0.00000000       0.00000000
H        0.12256700       0.83228827       0.37498182
H       -0.28404403       0.05341591       0.98477906
H       -0.84372622       0.01781246      -0.58406562
H       -0.72192729      -0.58945167       0.31522441
H       -0.60395312       0.81538928       1.02301264
H       -1.51943564       0.05678672      -0.01716629
H       -1.51943564       0.87325913       0.60468316
H       -1.33582807       0.84954345      -0.46523717
H       -0.71076995       1.41810918       0.24973257
H       -0.25678936       0.79461014      -0.50071430
H       -1.17491186       0.04078716       0.87449116
H       -1.34520793       0.93078935      -0.47423917
H       -0.46673840       0.58582091       0.55970454
H       -1.38815176       0.95132852      -0.88751984
H       -0.53260809       1.02659810      -1.01610672
H       -1.75423729       0.87267959      -0.46128309
H       -0.06133009       0.67022324      -1.50053811
H       -1.41155910       1.33371592       0.92042863
H       -0.06133009       0.67022324      -1.50053811
H        0.04610342       1.33371592      -0.35696453
