19
Properties=species:S:1:pos:R:3 pbc="F F F"
H        0.00000000       0.00000000       0.00000000
H       -0.19310522      -0.77460212      -0.55746114
H       -0.53729963      -0.34709048       0.73409688
H       -0.01377750      -0.97334045       0.02189630
H       -0.75184345       0.40936196       0.46391281
H       -0.66754752       0.25788116      -0.49421486
H       -1.17557096      -1.03258467       0.46807402
H       -0.62682635      -1.13300943      -0.78556937
H       -1.46486902       0.15871838      -0.14995465
H       -1.51556158      -0.94823849      -0.43333319
H       -1.47564411      -1.38198054      -0.50763386
H       -1.21823215      -0.53809834      -0.86195230
H       -0.17958251      -0.68267995      -0.69759196
H       -1.25121045      -0.26138926       0.84999985
H       -1.64994693      -0.78908646       0.13543296
H       -1.20417893      -0.43089584       0.43189660
H       -1.10293484      -0.13435188       0.14667991
H       -0.08323521      -1.16104484      -0.94606912
H       -0.01506796      -0.25623283       0.42908937
