21
Properties=species:S:1:pos:R:3 pbc="F F F"
H        0.00000000       0.00000000       0.00000000
H        0.63883960       0.60990006      -0.40983751
H        0.58236259      -0.41172725      -0.48991203
H       -0.03349248       0.96923625      -0.08671971
H        0.84218705       1.10494816      -1.28556633
H       -0.71362793       0.63587439      -0.18563354
H       -0.45395356      -0.28314662      -0.81352019
H       -0.36726934       1.24577451      -0.86099905
H       -0.69568390       0.72482938      -1.20792949
H        0.91142774       0.13951701      -1.39144027
H       -0.53059351      -0.11153412      -0.86475271
H        1.16817486      -1.20612621      -0.20870385
H        0.72395074      -0.37439519      -0.45149875
H        0.01466137       0.75072646      -1.67486644
H        2.51395082      -1.03708756       0.11626261
H        2.51395082      -0.98641092       1.08862710
H        3.32999897      -0.67123544       0.61979169
H        2.51395082      -1.03708756       0.11626261
H        0.59990567       0.00331795      -1.28474665
H        2.50171757      -1.03708756       0.16329151
H        3.28123546      -0.55034786       2.00842381
