21
Properties=species:S:1:pos:R:3 pbc="F F F"
H        0.00000000       0.00000000       0.00000000
H        0.54628479      -0.64623839      -0.66938484
H        0.19292465       0.26041853      -0.63516879
H        0.29613900       0.55887032       0.34135419
H        0.77714545      -0.55577880       0.18765844
H        1.27074409       0.46991533       0.65047538
H        0.66266447       0.01781246       0.78350657
H        1.07425392       0.90969181      -0.19572157
H        1.81303275       0.21927175      -0.11839497
H        1.25728834       0.16228330      -0.87484074
H        1.67527580      -0.65418911      -0.41442439
H        1.19163370      -0.70760500       0.48921332
H        0.14637172       0.56029594      -0.62126178
H        1.45075619      -1.76363671       1.52248609
H        0.98511553      -2.61243582       1.41866040
H        0.25843233      -2.24658370       0.79303455
H        1.55297220      -0.96923769       0.88076502
H        2.08900881      -1.94882798       1.88229752
H        0.84046495      -1.43011129       0.57409447
H        0.59330064      -1.33499098       0.46109197
H        0.66496307      -1.58885336       1.97005486
