21
Properties=species:S:1:pos:R:3 pbc="F F F"
H        0.00000000       0.00000000       0.00000000
H        0.24483983      -0.86484438      -0.37437752
H       -0.01634958       0.28314662      -0.93146205
H        0.58904827      -0.62345576      -1.36804712
H       -0.09296584       0.04679018      -1.74080837
H        0.49727803      -0.89468008      -0.07474010
H       -0.29103664      -0.57449579      -1.42372262
H        0.09866568      -0.33156794      -0.11769217
H       -0.44913882      -0.04875910      -0.68416709
H        1.25948536       0.12395275      -1.15540063
H       -0.12390018      -1.13027453      -0.64190668
H        1.05865777      -0.44094241      -0.72643334
H        0.31841016       0.42240456      -1.43580723
H        0.43048608       0.47334865      -0.55974120
H        0.85341084      -0.20437607      -0.39669019
H        0.05065709      -0.96173006      -0.66107398
H       -0.70590591      -0.60168254       0.20604283
H        0.19869387       0.25451732      -0.62979269
H        0.85855854      -1.51724648      -1.09134662
H        0.69843835      -1.14359891      -2.05480766
H        0.78425044      -1.72199273      -0.03461361
