21
Properties=species:S:1:pos:R:3 pbc="F F F"
H        0.00000000       0.00000000       0.00000000
H       -0.92830116      -0.43148959      -0.07346868
H       -0.20731537      -0.70907992       0.63426095
H       -0.37454844      -1.01468039      -0.62238336
H        0.73010111      -0.49504808       0.52459848
H        0.59804726      -1.20805967       0.85891902
H        1.31730366      -0.82960546       0.32272536
H        0.96570939      -0.19475858      -0.28774694
H        0.46604979      -1.23251891      -0.18192688
H        1.28340495      -1.05960298      -0.60266685
H       -0.28340745      -1.64772522       0.38684243
H        0.35790527      -0.31786364      -0.44551671
H       -0.76734769      -0.46301347       0.00188440
H        0.40585655      -0.47485745      -0.83094049
H        1.28340495      -1.33734322       0.43992019
H       -0.15352716      -1.10376024      -0.27752829
H       -0.22417703      -1.13313615       0.19425087
H        0.40496159      -0.79541111      -0.14238024
H        0.06725228      -0.46752000       0.26880953
H        0.06725228      -0.46752000       0.26880953
H        0.40585655       0.49174887      -0.24260122
