21
Properties=species:S:1:pos:R:3 pbc="F F F"
H        0.00000000       0.00000000       0.00000000
H       -0.02074104      -0.97334045      -0.01546210
H       -0.28665867      -1.74470901      -0.63803929
H       -0.70652765       0.26784137      -0.52670437
H       -1.15453291      -1.30493259      -0.67614359
H       -0.71918827       0.21783850      -0.61917323
H       -0.76261163      -0.42824322      -1.03827250
H       -1.19590008      -1.51509547      -1.05503047
H       -0.69116366      -0.42167354      -0.32292759
H       -0.30556843      -1.68855381      -1.71535850
H       -0.13538146      -1.53382134      -1.25270927
H        0.46501032      -0.91099989      -1.01523578
H        0.04737687      -0.30309451      -0.78970641
H       -0.59763169      -0.81186444      -2.16194391
H       -0.35641289      -0.03726232      -1.62355185
H        0.23503423      -0.01944986      -2.46212029
H        0.23503423      -0.01944986      -2.46212029
H       -0.10059437      -0.04547300      -2.09242272
H       -0.81609523      -1.57149589      -2.36380076
H       -1.77617717      -2.10620284      -3.38474703
H       -1.18551993      -2.90060186      -3.65563083
