21
Properties=species:S:1:pos:R:3 pbc="F F F"
H        0.00000000       0.00000000       0.00000000
H        0.45934626      -0.55622131       0.73002923
H       -0.77757263       0.55622131       0.37325934
H        0.12747383       0.53932232       0.73196018
H        0.65731078      -0.14329264       0.62908465
H       -0.73038739      -0.75960165       0.23166114
H       -0.25639954      -0.99669695       0.98495996
H       -0.63396603       0.57403374       1.38932216
H       -1.28170156       0.17776710       1.11534250
H       -1.14761913      -0.39944398       0.31764191
H       -0.69463497      -0.88398856       1.24978375
H        0.19491106       0.07505402       1.49906266
H       -0.54160553      -0.08642477       1.77548218
H       -0.97809702      -0.80155206       1.06971121
H       -0.14211699      -0.89302146       1.44840789
H       -0.74643505      -0.58582085       0.39111695
H       -0.49780542      -0.15977314       1.27574348
H       -0.15053260      -0.24043411      -0.12936553
H       -0.40974236      -0.22850764       0.31797504
H       -0.39832237      -0.63149095       0.84358150
H       -1.89947963       0.59665394       1.55923343
