21
Properties=species:S:1:pos:R:3 pbc="F F F"
H        0.00000000       0.00000000       0.00000000
H        0.59380746      -0.49897972      -0.58861941
H        0.05709076      -0.06749013      -1.34958982
H       -0.76830816       0.15966894      -0.66146219
H        0.68009883      -0.81489861      -1.02314615
H       -0.87379044      -0.49897972      -1.32507765
H       -0.55796111      -0.45023113       0.06780934
H       -0.23494834      -1.36182380      -0.27568069
H       -0.82758492      -1.42638659      -0.88792169
H       -0.09899458      -1.32692051      -0.20438427
H       -0.14899653      -1.03556561      -1.62103379
H       -1.04071450      -0.68375069      -0.38377166
H        0.42947972      -0.64011526      -0.15425104
H       -0.38819510       0.05615519      -1.00512612
H       -0.01666152      -1.43447685      -0.68472117
H       -0.55107522      -0.60596323      -0.31894511
H       -0.53186679      -0.72599840      -0.90567821
H       -0.45022076      -0.79525924      -1.07277322
H       -0.59182554       1.06082904      -1.34171546
H       -0.06040186       0.10855512      -0.23798096
H       -0.17659245       0.10855512      -0.25648832
