21
Properties=species:S:1:pos:R:3 pbc="F F F"
H        0.00000000       0.00000000       0.00000000
H       -0.61304885      -0.15966894      -0.80746567
H       -0.36215004       0.61471456       0.73776507
H       -0.50518876      -0.17748140       0.21301115
H       -0.83388042       1.34652579       0.30189380
H       -0.35001442       1.30020881       0.04638147
H       -1.32855308       0.13782711      -0.20016277
H       -1.50641203       0.88297772      -0.31951460
H       -1.20504975       0.58773959      -1.18725443
H       -0.15305397       0.65399188      -1.08026922
H       -0.73005038       1.06774867       0.23832336
H       -1.31212974       0.35021579       0.34881544
H       -0.07764266       0.61586303      -0.88250309
H       -0.97994375       0.53984076      -0.68482560
H       -0.53000349       0.73411125      -0.25784647
H       -0.06941074       0.64658445       0.85448128
H        0.22726494       0.51933533       0.38987780
H       -0.64328897       0.29452640       0.99177605
H       -0.24042523       0.86263907       0.10266136
H       -0.50272858       0.89232063       0.07285136
H       -1.17056632       0.49835372       0.72744960
