21
Properties=species:S:1:pos:R:3 pbc="F F F"
H        0.00000000       0.00000000       0.00000000
H       -0.21671417       0.94706190      -0.06457304
H       -0.53746217      -0.29845181      -0.82181793
H       -0.01346681       1.15180814      -1.10423493
H       -0.65227497       0.35740912      -1.22330749
H        0.55539691       0.58582085      -0.63377601
H       -0.81528902       0.19965339       0.30476782
H        0.05768764      -0.10369323      -0.00868219
H        0.29923147      -0.11665556       0.40980452
H        0.96573979       0.32838038       0.07534266
H        0.18681026       0.10492361      -1.59200525
H        0.18681026       0.10492361      -1.59200525
H        0.18681026       0.10492361      -1.59200525
H        0.18681026       0.10492361      -1.59200525
H        0.18681026       0.10492361      -1.59200525
H        0.64471567      -0.02378526      -1.74613726
H        0.18681026       0.10492361      -1.59200525
H        0.18681026       0.10492361      -1.59200525
H        0.04072419       0.35464340      -1.44445074
H        0.56837374      -0.19991630      -1.37308383
H        0.03147537      -0.54909539      -1.57118344
