21
Properties=species:S:1:pos:R:3 pbc="F F F"
H        0.00000000       0.00000000       0.00000000
H       -0.73394406      -0.63587439       0.07106813
H       -0.81926638      -0.65277338      -0.89872336
H        0.08954400      -0.96923625       0.02497855
H       -0.54893863      -1.49693346      -0.48681876
H       -0.11008799      -0.09655207      -1.38964880
H        0.74339682       0.18659455      -1.01621532
H        0.74339682      -0.60780448      -0.36640453
H       -0.74657869       0.43148959      -0.55656177
H       -1.36958671      -0.31591892      -0.23011813
H       -1.51748109      -0.12473172      -0.94340968
H       -0.20189369       0.58550572      -0.99132365
H       -0.89019656      -0.78581434      -1.28625786
H       -1.09897363       0.12195763      -0.80776286
H        0.45213777      -0.74250317      -1.01877129
H       -0.49062997       0.30956718      -0.64622402
H        0.10740834      -1.39354157      -0.74358237
H       -0.52457023      -1.02768946      -1.46474755
H       -0.41800201      -0.65354818      -0.48186564
H       -0.44144672      -0.06474090      -0.86838531
H       -0.22353250      -0.19853824      -0.97721422
