21
Properties=species:S:1:pos:R:3 pbc="F F F"
H        0.00000000       0.00000000       0.00000000
H        0.97460508       0.08895500       0.30912116
H       -0.78643954       0.08895500       0.65339404
H        0.07513957       0.66108263       0.71090424
H       -0.34355631       0.61490655       1.41533446
H        0.86698830      -0.12438690       0.53496081
H       -0.90044373      -0.01781246      -0.49214602
H       -1.52804196      -0.45758891       0.10850203
H        0.60260791       0.83712786       1.69642758
H       -1.87504888       0.07114254      -0.18302491
H        0.00108987      -0.22255866       0.06413043
H        1.12738776       0.99679679       0.82899708
H        0.71976864       0.32604557       1.31094861
H       -0.63313186      -0.17186600       1.03392553
H       -1.87504888      -0.61435163       0.50846517
H        0.29897147      -0.53771806       1.25900185
H       -0.10294199       0.02620196       1.78983986
H       -1.96207392       0.88761497       0.43270507
H       -1.46804237      -0.05813032       1.26891732
H       -2.86297750      -0.59283727       1.40398955
H       -2.13721180       0.02997255       0.96852243
