21
Properties=species:S:1:pos:R:3 pbc="F F F"
H        0.00000000       0.00000000       0.00000000
H       -0.92501378       0.29845181       0.32954502
H       -0.44351187      -0.84879911       0.17577894
H       -1.34899604      -0.50170863       0.26345736
H        0.05766484      -0.38525102      -0.59055585
H       -1.73849177      -0.22749975      -0.00950152
H       -0.44310680       0.33235219      -0.86401522
H       -1.36202586       0.28441483      -0.90436065
H       -0.82197821      -0.91120255      -0.53645343
H       -0.37338823       0.02022296      -0.98260462
H       -1.10496318      -0.17855316       0.58391672
H       -1.03917897       0.58159840      -0.59503877
H       -1.28634882      -0.27877992      -0.90868539
H       -1.09580433      -0.20004654      -0.82763869
H       -1.33670342      -0.79319447       0.28158873
H       -0.13259059       0.79743153       0.06281352
H       -0.65391058      -0.14312959       0.15054920
H       -0.35760245      -1.28965676      -1.30403960
H       -0.35108337      -1.25829303      -1.31481528
H       -1.27343130      -0.44055372       0.03698778
H       -1.94276619      -0.87483269       0.21525772
