21
Properties=species:S:1:pos:R:3 pbc="F F F"
H        0.00000000       0.00000000       0.00000000
H       -0.04850490       0.68549418       0.68978679
H       -0.11715365       0.18477097      -0.94878644
H       -0.25300062       0.97916996      -0.31333411
H       -0.23531610       0.78441137      -1.32084596
H        0.03562872      -0.77136850      -0.67605120
H        0.03701645      -0.20497143      -1.30409610
H        0.04080325      -0.30388862       0.43196973
H        0.09695958      -0.20829660       1.04761219
H       -0.17634131      -0.47310370       0.16919708
H       -1.11214983       0.31905457       0.56791657
H       -1.57837176      -0.31681982      -0.00336415
H       -1.56060541      -1.14855087       0.50256944
H       -0.67375028      -0.43482792      -0.34365073
H       -0.83980912      -0.19809163       0.14776073
H       -2.77934432      -0.39488924      -0.89866883
H       -1.76201046      -0.33489007       0.99800164
H       -0.59226048      -1.44700265       0.66553712
H       -1.91957414      -0.01643503      -1.15484965
H       -1.05773735       0.17440265       0.71636218
H       -1.05804837       0.17440265       0.68092757
