21
Properties=species:S:1:pos:R:3 pbc="F F F"
H        0.00000000       0.00000000       0.00000000
H       -0.67230010      -0.60990006       0.35227177
H       -0.77060115       0.37948275       0.09774774
H        0.29831058      -0.80465865       0.62302625
H       -1.29927576       0.08691669       0.77020943
H        0.41901645      -0.24843735       1.47705889
H       -0.16985020      -0.52151203       1.42845428
H       -0.77188671       0.90057749       0.85896641
H       -0.40650085      -0.33283055       1.98643088
H        0.44628400       0.77751607       1.47681963
H       -0.89582050       0.03470927       0.96271956
H        0.71673232       0.09002143       0.90194333
H       -0.13816550       0.60927314       1.68022728
H       -0.01674273       0.84879911       0.47678161
H        0.52295655       0.29845181       0.83112377
H       -0.60179615      -0.62987530       0.71018398
H       -0.67885160       0.22009289       1.10086441
H       -1.05481684      -0.58536673       1.46675134
H       -0.40756261       0.75970364       2.04598784
H       -0.67587280       0.16330492       0.68584168
H       -0.07001334      -0.47905323       0.61991096
