13
Properties=species:S:1:pos:R:3 pbc="F F F"
H        0.00000000       0.00000000       0.00000000
H       -0.26684549      -0.92909771       0.11675546
H        0.64921010      -0.87568182      -0.34293225
H        0.93456769       0.05341589      -0.28454229
H        1.27626157      -0.54332960       0.39846686
H       -0.21834055      -0.24360353       0.80654228
H        0.33266243       0.51005715       0.53004241
H        0.62536496      -0.16018879       1.25005591
H        0.84779090      -0.49265295       1.27133906
H        0.86179578       0.00833732       1.00856483
H        0.72392905      -1.19328952       0.07325528
H        0.87618911       0.20606343      -0.19536714
H        0.50262785      -0.66249037       0.56386262
