15
Properties=species:S:1:pos:R:3 pbc="F F F"
H        0.00000000       0.00000000       0.00000000
H        0.42330277      -0.73181123      -0.48304045
H        0.06793284      -1.44089115       0.08174163
H        0.64981455      -1.16330075       0.42019433
H        0.22964320      -0.66432106       1.14306092
H       -0.52823865      -0.54704022      -0.39090228
H       -0.03330480      -0.21783850       0.94841868
H       -0.11231862      -1.12713408       1.09820271
H       -0.86281514      -1.07473743       0.35586089
H        0.42549738      -0.31492516       0.14121711
H       -0.96682972      -0.10930628       0.28385729
H       -0.72449970      -0.34218645       1.13583863
H       -0.04391804      -1.48760128      -0.17899282
H       -0.12308198       0.22304592       0.76443589
H       -1.08742332      -1.08862543       0.00151861
