21
Properties=species:S:1:pos:R:3 pbc="F F F"
H        0.00000000       0.00000000       0.00000000
H        0.46564069       0.84879911      -0.10382564
H        0.00000000       0.46966103       0.85292399
H        0.56984389      -0.31530851       0.72382283
H        1.07629299       1.24771023       0.61818379
H       -0.17619662       0.98938280       0.20832744
H        0.95032394       1.40502048       0.60963351
H        1.01346803      -0.15966894       0.02668699
H        1.27553344       0.23924224       0.93526584
H        0.37028509       1.39874482       0.90247548
H        0.54350638       1.62525725       0.04785259
H       -0.28817245       1.32692301       1.00059199
H        0.70696515       0.54233390       1.27060544
H        0.84685963       0.71920729      -0.19275813
H        0.57389390       0.76773798       0.02282953
H        2.23768902       1.33160853       0.57333696
H        0.01592225       0.29169032       0.63209283
H        2.22439480       1.33160853       0.53979361
H        2.20162559       1.36662710       0.58690274
H        2.23768902       1.33160853       0.57333696
H        2.22439480       1.33160853       0.53979361
