21
Properties=species:S:1:pos:R:3 pbc="F F F"
H        0.00000000       0.00000000       0.00000000
H        0.13252793       0.60990006       0.74734145
H       -0.41765010       0.91159266       0.21884026
H       -1.37731791       0.78720576       0.56073111
H       -0.97182637       0.52301389       1.46577430
H        0.16511281      -0.39891118       0.93109161
H       -1.48608851       0.11695981       1.33031750
H       -0.66356111       0.23496792       1.83784449
H       -1.20447874       0.51268148       0.74333477
H       -0.60254842      -0.80827314       1.36833298
H       -0.20017476       0.20053810       1.56575012
H       -0.72584593       0.21926402       0.62370640
H       -0.76043719      -0.68205780       0.82504404
H       -1.43486094      -0.34472504       0.98662245
H       -0.76164722      -0.64554596       1.22205102
H       -0.43027693       0.75319266       1.46222305
H       -0.82770175      -1.41733575       1.40767384
H        0.01801622      -1.76442623       1.74286079
H        0.73046815      -1.84881949       1.08456683
H       -0.82770175      -1.41733575       1.40767384
H        0.68357438      -0.07806942      -1.33290339
