21
Properties=species:S:1:pos:R:3 pbc="F F F"
H        0.00000000       0.00000000       0.00000000
H        0.52815789      -0.26419187       0.83939010
H       -0.52738905       0.81366080       0.08875707
H        0.30330652       0.99843180       0.56190139
H       -0.36975101      -0.17478335       0.82527137
H       -0.31705815       1.58502936       0.73224401
H       -0.00132051       0.32419637       1.57583046
H        0.41288584       1.36719084       1.33870006
H       -0.90156364       0.47567716       1.23719096
H       -0.03472516       1.70941627       1.71109009
H        0.66016686       1.04833364       1.87888670
H        0.73539209       0.53488374       1.36921120
H       -0.89708388       0.91478342       1.24960685
H       -0.18364275       0.06200260       0.49518818
H       -0.26985943       0.83272690       2.19010115
H        1.14439487       0.61168408       0.47392595
H       -0.51348823       0.20737851       1.55929029
H        0.94944507       0.66321504       0.71386158
H       -0.76993203       1.30473471       1.57734191
H       -0.60115391       0.57227218       1.13776493
H       -0.97066295       0.10485804       0.85136950
