21
Properties=species:S:1:pos:R:3 pbc="F F F"
H        0.00000000       0.00000000       0.00000000
H        0.83968246      -0.37845421      -0.31585881
H        0.39738324      -0.94210368      -0.08860602
H       -0.88699424      -0.01872592      -0.61401772
H        0.71698046      -1.29004693      -0.77112454
H        0.27188861       0.17732459      -0.87869179
H       -0.57970387       0.45093513      -1.40966344
H       -1.29052472       0.32654822      -0.67987889
H        0.17808707      -1.52792454      -0.90226865
H        0.09721625      -1.23663104      -1.58743525
H       -0.37974179      -0.97214574      -0.32955772
H       -0.49890184      -0.92146909      -1.29459333
H        0.06964871      -0.21222389      -1.53127515
H        0.67943192      -0.50284111      -1.32192624
H       -0.21352738      -0.71554267      -0.95197147
H       -0.95780313      -0.47647178      -1.63389814
H       -0.78939366      -0.78822190      -0.86672819
H       -2.47504377       1.22497725      -0.48052999
H       -3.44664121       1.48916912      -0.28172141
H       -2.61364746       2.13656998      -0.93120909
H       -3.46870661       2.69279122      -0.81800228
