21
Properties=species:S:1:pos:R:3 pbc="F F F"
H        0.00000000       0.00000000       0.00000000
H        0.05739931      -0.52769721       0.81627315
H        0.62182552       0.81647241      -0.00545691
H        0.03818373       0.98938280       0.27016214
H       -0.51166767       0.32830018       0.72699273
H        0.85402703      -0.17291039       0.13781920
H        0.22921360       0.08701736       1.61997068
H        1.24514508       0.62171382       0.78629154
H        1.02401483      -0.18980940       1.09640121
H        0.05415010       1.08527160       1.45821476
H        0.56943262       1.39308238       0.82785124
H        0.70062464       0.71066880       1.65168655
H        0.89609683      -0.43418041       0.14398724
H        0.01242936       0.91149098       1.30428958
H       -0.34515181       0.43064386       1.10551751
H        0.89330244      -0.04404062       1.10012293
H        1.34222519       0.05532688       1.32549357
H       -0.21375021      -0.08895500       0.99986088
H        0.11971652       0.90021324       0.67509627
H        0.32392240       0.43982518       0.99100912
H        0.30530813       0.33221459       2.45701766
