21
Properties=species:S:1:pos:R:3 pbc="F F F"
H        0.00000000       0.00000000       0.00000000
H        1.00909960       0.15966894       0.09771150
H        0.17576265      -0.42615193      -0.02753775
H        1.34699774       0.47342598      -0.87774152
H        0.55735248       0.69126451      -0.35136938
H        1.45283663      -0.46521932      -0.64151269
H        0.77945852       0.39281270      -1.30788350
H        1.05111325      -0.06630814      -1.49755716
H       -0.10155946       0.07654995      -0.84257710
H        0.37796280      -0.54929101      -1.24031365
H        0.64489484      -1.07993388      -0.79211152
H        1.22465372      -0.52371258      -0.15350264
H       -0.08941758      -0.68770087      -1.03928280
H        0.08919621      -0.82929027      -0.03287655
H        1.10053372      -0.38311714      -1.39224780
H        0.21951258      -0.43475759      -0.34085900
H        1.00680089      -0.20341557      -0.57690799
H        0.54729927       0.03856802      -0.92411834
H        0.87911272      -1.73263037      -0.26934534
H        0.46772194       0.37440276      -0.87247944
H        0.70974696      -0.09286724      -0.67738110
