21
Properties=species:S:1:pos:R:3 pbc="F F F"
H        0.00000000       0.00000000       0.00000000
H       -0.01035373      -0.77460212      -0.58986890
H       -0.30400008      -0.39614791      -1.43757474
H       -0.24812393      -0.08910793       0.05945683
H       -0.39829734      -0.77460212      -0.54541934
H       -0.25672626       0.55091399      -1.21644151
H       -0.20009878      -1.77306890      -0.85166246
H       -0.17960054      -1.77306890      -0.85566974
H       -0.14036570      -1.33572364      -0.27980912
H       -0.10315365      -0.83234674      -0.01652193
H       -0.35881901      -1.26099229      -1.88153410
H       -1.21694732      -0.38016236      -1.31670380
H        0.59484082      -0.38016236      -1.63799262
H       -1.21214294      -0.41213346      -1.28473866
H       -0.11993173      -0.42926127      -1.43519640
H       -0.16911337       0.02032304      -1.12506688
H       -0.35881901      -1.77208376      -0.87195182
H       -0.14975148      -0.52206284      -0.81453240
H       -0.55292809      -2.15478301      -1.54758704
H       -0.55561578      -2.14084005      -1.51383853
H       -0.40531331      -0.85163033      -2.76375961
