21
Properties=species:S:1:pos:R:3 pbc="F F F"
H        0.00000000       0.00000000       0.00000000
H       -0.12270200      -0.91159266      -0.45526573
H       -0.76818967       0.33235219       0.59392804
H        0.42370677      -0.86091602       0.34905407
H       -0.17307210      -0.13730884       1.20492268
H       -0.74842191      -0.77318323       0.74373162
H       -0.43009552      -1.12669158       1.29648972
H       -0.67917341      -0.11698252      -0.53890252
H       -1.10017967      -0.26493871       0.34895033
H       -0.79714119      -0.79089028       1.17651689
H       -1.33896732      -0.51589370       0.13849384
H       -1.03077924      -1.12165642      -0.71534252
H       -0.15575308      -1.17781162      -0.08661121
H        0.02213481      -0.04444361       0.82385576
H       -0.09396058      -1.17622447       1.11106586
H       -1.35351241      -0.18779096       0.21842360
H       -0.90118676      -0.70383060      -0.47321159
H       -0.62921208      -0.39223304       0.45210668
H       -1.37413287      -0.40162969       0.75956094
H       -0.63231003       0.38702750      -0.60813713
H       -1.27693725      -0.45257157       0.79528570
