20
Properties=species:S:1:pos:R:3 pbc="F F F"
H        0.00000000       0.00000000       0.00000000
H        0.07742673      -0.40936196      -0.88005048
H        0.70800364       0.73255098      -0.35528472
H        0.49767360       0.83173102      -0.09276549
H        1.01739240      -0.15871838      -0.92131990
H        0.73683345       0.77037930      -0.84305716
H       -0.22311328      -0.60990006      -0.72546768
H        0.65705872       0.93957579       0.96719766
H        1.11743438      -0.81980097      -0.21349061
H        0.72289026      -0.32082126       0.52367634
H        1.01739240      -0.76861846      -0.16231865
H        1.26695120       0.52068889       0.51253295
H        1.31651330       0.45225596       0.26593715
H        0.95676386       0.00000000      -0.79490393
H        0.73511553       0.08439321      -0.63288540
H        0.66819704       0.26236954       1.30146694
H        0.66819704       0.26236954       1.30146694
H       -0.73586261      -1.11397958      -0.80129933
H        1.47236180       0.12534499      -0.74497837
H        0.66819704       0.26236954       1.30146694
