21
Properties=species:S:1:pos:R:3 pbc="F F F"
H        0.00000000       0.00000000       0.00000000
H        0.05110265      -0.33235219      -0.96966726
H        0.59529126      -0.91817307      -0.32624161
H        0.68494236      -0.44851205       0.52195770
H        0.84883475      -0.36195177      -1.15065503
H        1.45417714      -0.41536766      -0.32359326
H        0.68975288       0.01781246       0.75976807
H        1.03973651      -0.44616526       0.32798684
H       -0.02130990      -0.01859516       0.06010956
H        0.82447892       0.44297516      -0.14793709
H        1.57166994       0.07782468      -0.66881812
H        0.45666537       0.58015192      -1.04125822
H        0.89244449      -0.42134830      -1.04005516
H        1.12314355       0.78690457      -0.17476282
H        0.69034839       0.40410668       0.05184340
H        0.45666537       0.37540573       0.01808417
H        1.20907187      -1.23964953       0.24301231
H        1.23687220      -1.23259783       0.23757759
H        0.92374629      -1.08203959      -0.40021014
H        0.73966330      -0.79556119      -0.64772105
H        0.76842260      -0.72390544      -0.67867911
