21
Properties=species:S:1:pos:R:3 pbc="F F F"
H        0.00000000       0.00000000       0.00000000
H       -0.49101692      -0.19475858      -0.87994057
H        0.20966983       0.47548735      -0.54358900
H       -0.50412887       0.37845421       0.74208313
H        0.35624576       0.60806775       0.23183131
H       -1.31907368       0.24501787      -0.61730105
H       -0.54992127       0.78456056      -1.18125141
H       -1.31907368       0.57737005       0.35371184
H       -1.08780921       0.66632503      -0.64224380
H       -1.24460351       0.59629273       0.14853066
H       -0.50252211       1.01742971       0.43919906
H        0.13313247       1.21796775      -0.49363637
H       -1.00411928      -0.05341591       0.20546322
H       -0.80637169       1.33597589      -0.26677313
H       -1.90593219       0.53168416       0.22826868
H       -0.46096846       2.29164124      -0.41073245
H       -0.47639570       1.36423433       0.02858782
H       -0.45543757      -0.35442752       0.13325423
H        0.39236453       1.67577815      -0.17269285
H        1.63012528       2.39931011       0.26827157
H        2.29223919       2.28130198      -0.43581665
