21
Properties=species:S:1:pos:R:3 pbc="F F F"
H        0.00000000       0.00000000       0.00000000
H       -0.27385142       0.28314662      -0.89044607
H       -0.39699370      -0.54858440      -0.39940593
H       -0.13305959      -0.96046287       0.08869660
H        0.71373999      -1.24360943      -0.29965788
H        0.98759151      -0.96046281      -1.19010389
H        0.71904361      -0.49080184       0.05128482
H        1.47530818      -0.20680213      -0.81302446
H        1.21928537       0.03779149      -1.13415647
H        0.72668326       0.36585209      -0.62562579
H        0.72948450      -0.86515522      -1.19664478
H        1.29064512      -0.75499368      -0.75914609
H        0.47787032       0.17151734      -1.41082191
H       -0.13361199      -0.56565249      -1.34644377
H        0.22991723      -1.27113223      -0.77120030
H        0.61340600      -0.38555139      -0.80423731
H        1.00268400      -0.80378425       0.70210856
H        1.00268400      -0.80378425       0.70210856
H        0.83726645      -1.04517281      -0.33639795
H        1.17937064      -0.66663969      -0.40714532
H        0.22128272      -0.33412322       1.04400253
