21
Properties=species:S:1:pos:R:3 pbc="F F F"
H        0.00000000       0.00000000       0.00000000
H       -0.50007260       0.47200781      -0.61275923
H       -0.76348144       0.37845421       0.47109383
H       -1.32512331       1.08753419       0.11078143
H       -0.57818025       1.33685219      -0.17230010
H       -0.96645683       1.92509615      -0.36162952
H        0.15519327       0.89257824      -0.50863576
H        0.25578481       0.28949922       0.39042583
H       -0.29354548       1.36931729      -0.79332519
H       -0.88653266       1.26636195       0.68279225
H       -0.90279335       0.33387351      -0.33832195
H       -1.66848254       1.17768764      -0.31845143
H        0.13148177       1.51952565       0.25849789
H        0.52428114       0.70586485      -0.10444242
H       -0.24983382       1.52618504      -0.97859406
H       -0.68631959       1.23830462       0.33768594
H       -0.17199963       1.39260936       1.00502563
H       -0.14462982       2.67392468       1.78443682
H       -0.63938093       0.86393058      -0.39989784
H       -0.24167255       0.70586485       0.64160746
H       -0.69144469       1.27120447      -0.76653504
