21
Properties=species:S:1:pos:R:3 pbc="F F F"
H        0.00000000       0.00000000       0.00000000
H        0.63848275      -0.52769721      -0.51179713
H        0.22931162       0.15966894      -0.98754537
H        0.82363909      -0.49504808       0.36037472
H        0.32519749       0.29956207       0.62154806
H        0.01896469       0.76956898      -0.25827378
H        1.52577281      -0.44163215      -0.38627043
H        1.13655400       0.02802888      -1.14520919
H        0.86593163       0.95406795      -0.85728002
H        0.94833386       0.96980798       0.15701026
H        1.70967937       0.62171578      -0.37670144
H        1.63858902      -0.32038790       0.02418587
H        1.37684608       0.13224602       0.56712127
H        1.72119081       0.54846406      -0.40259612
H        0.69150919       2.26965761      -0.42822176
H       -0.31518811       2.07489896      -0.47242111
H        0.25866681       1.85706043      -1.22826350
H        1.08727968       1.98651099      -1.27158082
H        1.70260620       2.18070269      -0.58018804
H        1.68892241       1.59751189      -1.35977912
H        0.91616666       2.09174776       0.07320601
