21
Properties=species:S:1:pos:R:3 pbc="F F F"
H        0.00000000       0.00000000       0.00000000
H       -0.50107276      -0.25064358       0.79634464
H       -0.33756828       0.72867560       1.05619884
H       -0.42232242       0.54396653       1.35352850
H        0.20722657       1.04012048       0.19832787
H        0.85934627       1.71761394      -0.97032201
H        1.71681261       1.59322703      -1.52041602
H        0.46367279       0.87668937       0.26409695
H        1.18756366       1.50427198      -2.39523411
H       -0.34262395      -0.66870767       0.11397463
H        0.53470075       0.88005197      -1.46672809
H        0.69302267       0.94849318      -1.76706219
H       -0.16474859       0.32954663       0.27263319
H        1.47421241       2.37869644      -1.33497310
H        1.83432186       1.95907915      -2.47208166
H        1.95133173       2.45805883      -1.64419961
H        1.65591681       2.86573601      -2.16515207
H        0.79153717       1.74566054      -1.42105651
H        1.33309579       2.25102139      -2.92095399
H        0.58310610       2.34453821      -2.15095568
H        0.87886041       2.72068238      -2.19904709
