12
Properties=species:S:1:pos:R:3 pbc="F F F"
H        0.00000000       0.00000000       0.00000000
H        0.36329272       0.89468008       0.34769225
H        0.96470112       0.33235219      -0.11053326
H        0.43570733      -0.54433715      -0.04049635
H        1.28590775       0.80201322       0.67959690
H       -0.13419284       0.36585209       0.94945693
H        0.06132583      -0.55257857       0.69193310
H        0.40984130      -0.21733871       1.50800538
H        1.23157108      -0.10456070       0.30772555
H        0.68770295       0.74430633       1.30906892
H        0.62975758      -0.66078198       0.92559463
H        1.30966628       0.03064471       1.35616922
