21
Properties=species:S:1:pos:R:3 pbc="F F F"
H        0.00000000       0.00000000       0.00000000
H        0.13252793       0.60990006       0.74734145
H       -0.54534674       0.55622131      -0.66823548
H       -1.48763514       0.78583485      -0.33253619
H       -1.87821984       0.11558890       0.33942941
H       -0.65708309      -0.72254789       0.31542057
H       -1.64976513       1.69742751       0.11022395
H       -0.87423217       2.22512484      -0.15082228
H       -0.12908539       1.43606901      -0.64263326
H       -0.47567898       1.53963065      -0.71590096
H       -1.05626678      -0.38339081       0.18621880
H       -0.38558882       2.27580142       0.68984443
H       -0.47968733       1.34171128       0.94152129
H       -1.74223542       0.69548422       1.30156267
H        0.59179139       1.26259661       0.40496814
H       -1.72174573       1.71524000       1.13385749
H        0.58583993       2.22512484       0.64719361
H       -0.90162283       2.06233048       1.52754211
H        0.70173115       0.88414240      -0.48539507
H       -1.75488520       0.64154047       1.21206188
H       -0.49236476       0.36401770      -0.23416081
