21
Properties=species:S:1:pos:R:3 pbc="F F F"
H        0.00000000       0.00000000       0.00000000
H       -0.90169489       0.25064358      -0.26867270
H        0.19018230       0.34709048       0.88961780
H       -1.43282080      -0.62604582      -0.21724355
H        0.62736201      -0.42427802       1.40652061
H       -0.95451343      -1.44251823       0.18014643
H       -1.00649703      -2.28008032      -0.41071019
H       -1.65192461      -1.93068445      -1.20157886
H        0.61537308      -1.25941551       0.72349137
H       -0.11869282      -2.43156099      -0.78073472
H        0.53101063      -1.78869343      -0.31390429
H        0.05261773      -0.66137326       2.08607388
H       -0.65891844      -0.00029063       2.15497231
H        0.15974909      -1.01237965      -0.05377192
H       -0.10209726      -2.03264976      -1.72620726
H       -1.51183915      -0.52624220       1.93310499
H       -2.00579691      -1.03689361      -1.04674566
H       -0.67680585       0.47147739       1.42457867
H       -1.63238335      -0.50919640      -1.77486575
H        0.46694368      -1.27898908      -1.96337569
H       -1.03267872      -1.70029759      -2.00348711
