21
Properties=species:S:1:pos:R:3 pbc="F F F"
H        0.00000000       0.00000000       0.00000000
H       -0.72715116       0.63587439       0.12237607
H       -1.53474522       0.19609794       0.44245327
H        0.51381463      -0.08895500       0.88397145
H       -1.48317122      -0.77577555       0.47182858
H       -0.47585598       1.34495425       0.74053246
H        0.49198189       1.29427767       0.83424854
H       -0.58923054      -0.90016246      -0.01676306
H       -1.07973874       1.25599921       1.56560004
H       -1.74268436       0.54691929       1.48964119
H       -1.62638712       0.32908079       0.54779077
H       -1.69552588      -0.01617390       1.20806098
H       -0.32651079       0.81617403       2.28648305
H       -0.65751731       1.40199494       1.51151693
H       -1.15836906      -0.13187724      -0.62198210
H       -0.85441315       0.10709411       2.69463229
H        0.31476900      -0.61665219       1.67768264
H       -0.20728001      -0.62918282      -0.19193105
H       -1.60433567      -0.98951966      -0.27718177
H       -1.85591364       0.23148102       2.50795460
H       -0.31944492      -1.31346893       1.27081275
