21
Properties=species:S:1:pos:R:3 pbc="F F F"
H        0.00000000       0.00000000       0.00000000
H       -0.02481474      -0.91159266      -0.47085762
H        0.83983207       0.11800810       0.47834828
H       -0.91417891      -1.29004693      -0.35310894
H        0.55316430      -1.55446029       0.08230191
H        1.47940469      -0.60453981       0.12878388
H        0.55749929      -0.00637880       1.45719445
H        1.42578983      -0.72892672      -0.88855439
H       -1.41609430      -0.61980098       0.24033457
H        0.73477346      -1.11468387       0.93181688
H       -0.87674856      -2.16673636       0.17918664
H        0.90238863       0.08754569      -1.22433400
H        0.11713928      -2.25569129       0.41918218
H        0.38408688      -1.54617345       1.79446363
H        1.10048294      -0.86402118       1.60866117
H       -1.61655688      -0.98565304       1.17803967
H        0.97391176      -1.64051938      -1.02319789
H        1.18040538      -1.43627083       0.53729808
H        0.02827767      -2.12936425       1.10067034
H       -1.13726640      -0.51599205       1.88356066
H       -0.80387908       0.11201024       0.43451443
