21
Properties=species:S:1:pos:R:3 pbc="F F F"
H        0.00000000       0.00000000       0.00000000
H       -0.56912082      -0.52595156       0.67290437
H       -0.56302071       0.61471456      -0.59871328
H        0.66342419       0.55622131       0.55118978
H        0.59454393       0.25776950       1.53073347
H       -0.30654228       1.52137148      -0.35324854
H        0.22425622       1.48362827       0.53190798
H       -0.40483689      -0.27530798       1.59932196
H       -0.14212328      -0.37810490       1.49838984
H       -0.23868421       1.79893684       1.32835484
H       -1.47427464       0.42994359      -0.30968568
H       -1.09492564       1.84970033      -0.00829962
H       -0.27815658       1.00432670       1.88969028
H       -1.20974004       2.09738874       1.18240666
H       -0.99068475       2.11389208       0.97793579
H       -1.28578496       0.80956811       1.88084793
H       -0.06183487       1.13364542       1.81792521
H       -0.47428602       1.58430600       1.36024356
H       -0.28089023       0.84775388      -0.00526208
H       -1.20781326       2.61839867      -1.29140484
H       -1.20781326       2.61839867      -1.29140484
