21
Properties=species:S:1:pos:R:3 pbc="F F F"
H        0.00000000       0.00000000       0.00000000
H        0.97460508       0.08895500       0.30912116
H       -0.60534239       0.05341591       0.82706183
H       -0.14527297       0.73181123      -0.62562698
H        0.02941722       0.07122837       1.63334143
H        1.01061761       0.07114254       1.33465016
H        1.22491443       0.93443269       0.04294357
H        0.51035500       1.49021149      -0.31563079
H       -0.99775910       1.13072240      -0.21640679
H        1.42989719       1.52025354       0.86032951
H        1.44757342       0.96582264       1.58352983
H       -1.24631655       0.48785484       0.54403019
H       -1.14009774       1.09775496       1.29556227
H       -0.22465530       0.92002749       2.03713369
H        0.71087748       1.39731216       2.15310836
H       -0.90847421       1.38968849       1.52735829
H        0.17014679       2.26157999       0.26966649
H        0.84105015       2.29485559       0.89654654
H       -0.77234745       2.10191107       0.64320922
H       -0.73754334       1.83771920       1.63432741
H        0.42185223       2.23487425       1.63515258
