21
Properties=species:S:1:pos:R:3 pbc="F F F"
H        0.00000000       0.00000000       0.00000000
H       -0.53245163       0.67024595      -0.56620628
H       -1.42873311       0.33789375      -0.93976426
H       -0.02852273       0.68714494      -1.39917135
H       -1.27847958      -0.54195392      -1.32880521
H       -0.38553095      -0.92040813      -1.24234068
H       -0.38553095      -1.75797009      -0.64920175
H       -1.39380527      -1.84692514      -0.47951400
H       -0.62338656      -0.68549418       0.29924518
H       -0.56137365       0.67024595      -2.21393824
H       -0.39669502      -1.56218362      -0.18381855
H       -1.94454038      -1.22744811      -1.14300561
H       -1.41531038      -0.37592700       0.12266685
H       -1.41778088       0.35493743      -1.87451482
H       -2.47896099      -0.49563688      -0.78676438
H       -2.04071045       0.36920750      -0.69708943
H       -0.03170049      -0.23137814      -2.47973466
H        0.74509394       0.01689899      -1.32426178
H        0.61696017      -0.43977645      -0.61156988
H       -1.85509717      -1.08500695      -0.37918389
H       -0.73709345      -0.95392603      -2.66322613
