21
Properties=species:S:1:pos:R:3 pbc="F F F"
H        0.00000000       0.00000000       0.00000000
H        0.58115071      -0.52769721      -0.57607329
H        0.34979165      -1.46634245      -0.69217199
H        1.48680878      -0.43874222      -0.10152677
H        1.78810430      -1.31858993       0.18683058
H        0.51120591       0.34709048       0.75250089
H        1.30849969       0.03091881       0.73255074
H       -0.75363070      -0.64286757       0.26848814
H        1.75213504      -1.37200582       1.21112394
H       -0.61837244      -0.76087564       1.22548354
H        0.13536650      -0.12257054       1.51815367
H        1.30949438      -0.53444386       1.60594416
H       -0.32222748      -1.72895110       1.39416063
H       -0.53942645      -1.57027447      -0.11538273
H        0.60286915      -1.74676359       1.83823586
H       -0.24197716      -2.19249916       0.48201650
H        0.44250619      -0.65883076       2.14090514
H        1.13098907      -1.96139050      -0.24722058
H        0.98954612      -2.01487350       1.45299864
H        0.55211127      -2.22093701       0.66908127
H        0.94853389      -1.78116059      -0.10390431
