21
Properties=species:S:1:pos:R:3 pbc="F F F"
H        0.00000000       0.00000000       0.00000000
H       -0.81573808      -0.52769721      -0.06456009
H       -0.09677097       0.68549418       0.68468529
H       -1.47465003       0.08701736      -0.55576777
H       -0.96160346       0.85838586      -0.99746656
H       -0.46525487       0.49253377      -1.81790185
H       -0.74417090      -0.44956991      -2.11449981
H       -2.29927301       0.30485585      -0.08608243
H       -1.48851490      -0.70021349      -1.53900814
H       -0.65887821       0.45588064       1.51211309
H       -1.70005965       1.50125337      -1.30524504
H       -2.55113554       1.06147695      -1.13109756
H       -0.55996013      -0.50458223       1.63776004
H        0.38000554      -0.75522578       1.59649062
H       -0.78452224      -1.36525917      -0.65687704
H       -1.55684066      -1.44509053      -1.15234566
H       -0.87465346       0.96454155      -2.49461389
H       -2.39251161       1.32257617      -0.43202901
H       -2.68530583       0.05555391      -1.28420222
H        0.94156504      -0.06973159       1.99998713
H       -1.79375839      -0.25975460      -1.51611745
