21
Properties=species:S:1:pos:R:3 pbc="F F F"
H        0.00000000       0.00000000       0.00000000
H       -0.73394406      -0.63587439       0.07106813
H       -1.03547621      -0.95118290      -0.79940295
H        0.77944088      -0.58319080       0.02052450
H        0.57558215      -1.53025270       0.11838312
H       -0.57423902      -0.36536205      -1.50466752
H       -0.48788348       0.54129487      -1.16031766
H       -1.43320203       0.80548674      -0.86048555
H       -0.04818986       0.46354809      -0.91439861
H       -1.25718510       1.19010043       0.13209569
H       -1.99203944      -0.05215567      -0.78649747
H        0.30540401      -0.89131361      -1.45056498
H       -1.41622019      -0.82675779      -0.91489005
H       -0.11691287      -1.81477952      -0.95123541
H       -2.09989977      -0.06996813       0.23397923
H       -1.38207042      -0.25742018       0.69136280
H       -0.09005895      -1.85791993      -1.01495945
H       -1.01939869       0.65417248       0.99267972
H       -2.22865105       0.91941464       0.47453833
H        0.02592492       0.52340674       0.75960004
H       -2.58595014       1.18360651      -0.45059079
