21
Properties=species:S:1:pos:R:3 pbc="F F F"
H        0.00000000       0.00000000       0.00000000
H        0.30968034       0.89379078      -0.23086154
H       -0.06696752       1.25964284      -1.11268497
H        0.68725604      -0.43977645       0.53135377
H        0.04207527      -0.55577880      -0.79837370
H        0.88606817      -0.40429801      -1.25966597
H        1.69320095      -0.31990480      -0.72163677
H        1.55350947      -0.96277237       0.06610143
H        1.35050297       0.33159205       0.66706753
H        1.32807744       1.01817763      -0.20404477
H        1.78971553       0.35709500       0.34177667
H       -0.69185424       0.48827434      -1.37312925
H        1.08019161      -1.23417544       0.01380605
H        1.11213398      -0.84407449      -2.09844589
H       -0.28246495       0.10982013      -2.17139840
H        1.73544049       0.65232551      -1.07210672
H        0.70089853       0.33943367      -2.35469556
H        2.09273076      -0.45937741      -0.20125049
H        1.09621513       0.71788788      -1.54936457
H        0.38357961       1.27081132      -0.95728886
H        0.34699219      -1.57349920      -0.61022973
