21
Properties=species:S:1:pos:R:3 pbc="F F F"
H        0.00000000       0.00000000       0.00000000
H        0.41703188       0.87984765      -0.00365971
H        0.70917839      -0.55622131      -0.49092546
H       -0.80045825       0.01689900      -0.55411363
H        1.31562829       0.11402464      -0.97704560
H        1.02558541       1.08210015      -0.79807937
H       -1.03009224       0.93532962      -0.78174120
H       -0.69718850      -0.56892186      -1.39045882
H       -0.36080891       1.46566844      -0.32785320
H        0.19998562      -0.96558326      -1.21287179
H        1.29768431       0.02506964      -1.99934149
H       -0.97891843       0.98600626      -1.75275826
H       -0.01170668       1.88167310      -1.07176542
H       -0.74044132       0.04579270      -2.21117759
H        1.00113690       1.72200418      -1.11623454
H       -0.48855326       1.56636453      -1.85996521
H        1.08517551       1.35615206      -2.07143807
H        0.62940097      -0.69774187      -1.98241794
H        1.26870060       0.35022902      -1.98334026
H        0.18108809       0.20546164      -2.63380432
H        0.19276199       1.07131648      -2.44653225
