21
Properties=species:S:1:pos:R:3 pbc="F F F"
H        0.00000000       0.00000000       0.00000000
H       -0.27385142       0.28314662      -0.89044607
H       -0.82485437      -0.47051406      -1.16694593
H       -0.08516718      -0.96923625       0.03726401
H        0.11774983      -1.34769046      -0.83661127
H        0.33171552      -1.37859821       0.81616879
H        0.47568345      -0.66219628      -1.42825484
H        0.81082219      -0.60399610       1.16042066
H        0.49543181       0.13241386      -0.86587989
H       -0.33992115      -1.26491308      -0.73440254
H        1.67923141      -1.04377258       1.18328786
H        1.66935575      -1.83838272       0.62065291
H        0.81741953      -1.96441913       0.12752557
H       -0.30108273      -0.56403089      -2.10558605
H        2.18713808      -1.60876918      -0.23521096
H        1.60487103      -1.62475467      -0.94868648
H        2.56563640      -0.66666549      -0.08519916
H        1.62800586      -0.69734776      -1.38766837
H        0.75680739      -0.28798580      -1.24104977
H        0.73707950      -1.94006324      -0.63952744
H        2.21871066      -0.35135698       0.76819640
