21
Properties=species:S:1:pos:R:3 pbc="F F F"
H        0.00000000       0.00000000       0.00000000
H        0.49089283       0.77460212       0.32722577
H       -0.14838916       1.50641334       0.38912773
H        0.30581495       2.25382185       0.92615950
H       -0.93088120       0.43148959       0.02451222
H        0.05608006      -0.55577880       0.79751229
H        0.83738112       0.57984352       1.27344930
H       -0.84643710      -0.87108731       0.98218566
H        0.53486878      -0.06073073       1.55844104
H        1.28592539       1.95537007       0.98644137
H       -1.08711374       1.32616973       0.50249016
H       -1.31733191      -0.52399683       0.20382380
H       -0.19311851       0.13402785       2.25516725
H        0.55464923       1.26533771       1.90449715
H        0.28179526       1.99714899       1.32306433
H        1.41653693       2.12322712      -0.07133555
H        0.39781308       2.21674395      -0.41424045
H       -1.09253609      -0.08381064       1.95242119
H       -0.26036400       1.04727352       2.35415339
H       -0.94722682      -0.50523520       1.93576705
H        1.65735066       1.27774942      -0.34613362
