21
Properties=species:S:1:pos:R:3 pbc="F F F"
H        0.00000000       0.00000000       0.00000000
H        0.17388797      -0.66108263       0.69339287
H       -0.04571859      -0.43977645      -0.86750644
H       -0.08418640      -1.57267523       0.29877877
H       -0.61113894      -1.46104598      -0.44834757
H        0.76875424      -2.12889647       0.17058316
H        0.62030584      -1.14885640      -0.82654250
H        1.43737578      -0.85040462      -0.28188932
H        1.61243927       0.14784968      -0.44364518
H       -1.16243756      -0.66643584      -0.33554065
H        1.56249499       0.36568817      -1.39133334
H        2.09530783      -0.22013268      -2.04421043
H        0.60927933      -2.28856540      -0.83061481
H        1.19117188      -0.64327019       0.82807773
H        0.77648699       0.67024595      -0.03409184
H        1.43904781      -1.88965416      -1.28413248
H        1.89887547      -1.36195695      -0.60726094
H        1.09940708      -1.33387542      -2.00788307
H        2.67922735      -0.65990913      -1.40101874
H       -0.99097872      -0.36798403       0.63133693
H       -0.19374835      -1.87920344      -1.19889486
