21
Properties=species:S:1:pos:R:3 pbc="F F F"
H        0.00000000       0.00000000       0.00000000
H       -0.47398776      -0.23709527       0.75329894
H       -1.03768003       0.62054718       0.74835229
H        0.04385734      -0.18641862       1.57629919
H       -0.81322503       1.17676854      -0.08445120
H       -0.57275832       2.11887217       0.24409142
H        0.45241511       2.13668466       0.19908094
H        0.89077723      -0.39891118       0.31734809
H        0.85574555       2.00591898       1.19122612
H        0.35110480       0.78165686       1.72378755
H        0.92892796      -0.58532977       1.24336696
H        0.75281739       1.38302398      -0.33926368
H        1.57564855       0.08491617       1.67446637
H       -0.80956757       2.10197306       1.18838835
H        0.09272110       2.09487391       1.87181747
H       -1.39442372       1.32737088       1.26582122
H        0.03637391       2.08507395       1.67021644
H        0.97123307       1.30935407       1.18989849
H        1.05901384       0.72778374       2.28531313
H        0.77474290       0.86957765       0.34370154
H        2.05787230       0.36806279       0.87737852
