21
Properties=species:S:1:pos:R:3 pbc="F F F"
H        0.00000000       0.00000000       0.00000000
H       -0.77018702      -0.01689900       0.59547228
H       -1.32909966      -0.81129801       0.26400480
H       -0.36868873      -0.31535080       1.49160254
H       -0.73809707      -1.19519842       1.68516505
H       -0.03607136      -1.94260693       1.72834325
H        0.89256084      -0.19475858       0.46768385
H       -1.55091143      -1.35486734       1.07922578
H       -0.18303438      -0.74740851      -0.67911917
H        1.28448212      -1.07144797       0.10555494
H       -0.29362181      -2.60368967       1.06148601
H        0.81417871      -1.56415272       1.44214714
H       -0.92167932      -1.31027770      -0.46612456
H        0.43428221      -2.55027366       0.33994156
H        0.07698318      -2.28608179      -0.58518755
H       -0.71287858      -2.22870827      -0.21924739
H        0.59267467      -0.64572209       1.20660090
H        0.44803914      -1.48316383      -0.84204936
H        1.17233610      -1.80325913       0.73796034
H        0.49032199      -2.47350502       0.36519909
H       -1.18346334      -2.15007234       0.65339184
