21
Properties=species:S:1:pos:R:3 pbc="F F F"
H        0.00000000       0.00000000       0.00000000
H        0.50912565      -0.18477097       0.80914259
H       -0.05298162       0.04484257       1.63657045
H        0.39099705      -0.20580101       2.46610141
H        1.21907735      -0.58425522       2.12096906
H       -0.97460514      -0.08895500       0.30912110
H        0.13481729      -0.95566529      -0.34907302
H       -0.77996898      -1.41921341      -0.38923699
H        1.61672938      -1.17007613       2.86394310
H        0.71457624      -1.51188660       0.28953585
H        0.90332460      -1.08112109       3.59638047
H        1.30089855      -1.13179767       4.48375177
H        0.83740580      -1.15284646       0.90071726
H        2.24644136      -0.98031688       4.30750418
H       -1.44522691      -1.00054765       0.33806670
H        2.37085319      -0.50830907       3.52643561
H       -0.97460514       0.06252579       1.27094984
H        1.85098910       0.30535173       3.65196776
H       -1.30754662      -0.79511660       1.72583818
H       -0.64775389      -2.26801252       0.06915170
H        1.74236846       0.16740298       2.02342844
