21
Properties=species:S:1:pos:R:3 pbc="F F F"
H        0.00000000       0.00000000       0.00000000
H       -0.67230010      -0.60990006       0.35227177
H       -1.41321456       0.00481451       0.70793402
H       -0.26529357      -1.16612136       1.11272395
H       -1.24245286       0.96047980       0.37496540
H       -0.82740080      -0.93650782       1.94015181
H        0.67119753      -0.91547775       1.20340478
H       -0.42304134       0.97737879      -0.15071514
H       -0.11083865      -0.65336120       2.53549004
H        0.93309748      -0.16181707       0.64531446
H        0.76911885      -0.63233113       2.12984967
H       -1.37720203       0.02262696       1.73346305
H       -0.30075085       0.32595795       2.77671885
H        0.87329525      -0.01781246       0.53885245
H       -1.15644228       1.48817706       1.18872142
H       -1.50810003      -0.18909931       1.76308393
H       -1.10813630       0.62440979       2.21781015
H        1.10805964       0.26145965       1.94459832
H        0.42032725       0.74196267       2.38260698
H       -1.15644228       0.85230267       1.92609835
H       -0.06332612      -0.26626188       1.79772961
