21
Properties=species:S:1:pos:R:3 pbc="F F F"
H        0.00000000       0.00000000       0.00000000
H        0.05739931      -0.52769721       0.81627315
H        0.34282357       0.95566529       0.14999890
H        0.05739931       0.19485068       1.54514098
H       -0.50173491       0.96945280       1.35693502
H        1.04382813       0.42446423       1.71115208
H        0.60628039      -0.36585209      -0.74289984
H        1.13116407       0.90224940       0.80497229
H       -0.09037894       1.78311360       1.69870007
H        1.11441600      -1.11326063      -0.25658450
H        1.88909018       1.00112104       0.51986730
H        0.56684613       1.43602312       2.32770252
H        0.92046291      -0.96747363       0.71738529
H        1.22346342       0.38155642      -1.08022702
H       -0.48466995       1.02012944       0.38472021
H        1.73650491       1.08551431      -0.43807656
H        2.08743429      -0.26468197      -1.08780885
H        0.22036886       2.33933496       0.89410228
H        1.33150959       1.88029706       2.07031488
H        1.73962808      -1.17133892      -1.01664066
H        0.78148186       1.24518323      -0.09784046
