21
Properties=species:S:1:pos:R:3 pbc="F F F"
H        0.00000000       0.00000000       0.00000000
H        0.93511528      -0.39891118      -0.14054634
H        1.01920652      -1.04177880       0.65505022
H        0.98242950      -0.89395928      -1.03832841
H        1.13561618      -1.90662313       0.22313142
H        0.24901950      -1.02487981       1.25052249
H       -0.55759728      -0.12438690      -0.85260600
H        0.06885099      -0.59404790      -1.43143404
H       -0.40380961      -0.41497976       0.86335713
H       -1.19109058      -0.88464081       0.53522909
H       -1.32163477      -0.73910147      -0.54979175
H       -0.35985389      -1.45889235      -1.55917263
H        0.44497186      -2.48981380       0.58501518
H       -1.24509549      -0.86682838      -0.48950994
H       -1.55516148       0.07370025       0.19883341
H       -1.48043978       0.05592030       0.09279361
H       -2.26863194       0.06057787       0.33437744
H       -1.98457253       0.32485497       0.58403218
H       -1.28084970      -1.14087367       0.95509577
H       -0.94058526      -0.39732099      -0.39422977
H       -1.92997062      -0.74134815       1.06613517
