21
Properties=species:S:1:pos:R:3 pbc="F F F"
H        0.00000000       0.00000000       0.00000000
H        0.36038706      -0.22961354      -0.93312520
H       -0.71824318      -0.69681674       0.22780931
H       -0.52348542      -0.97996336       1.13882971
H        0.13143307      -0.31888074       1.42538249
H        0.92594039      -0.84483230       1.80677080
H        1.32042384      -0.24651255      -0.77155578
H        0.70333046       0.01689900       0.67312819
H        1.55600691      -1.02960324       1.08778763
H        1.55394530      -1.17561030      -0.94564217
H        1.49637091      -0.05175397       0.22063154
H        1.20222652      -0.73115146       0.17176914
H        1.84325695      -1.60709989      -0.06052107
H       -0.07253665      -1.09445786      -1.04574013
H        0.74790180      -1.61988425      -0.98103178
H       -0.64238065      -1.40976644      -0.32191741
H        0.33793265      -1.68239427       1.88462090
H       -0.33095238      -1.93430066       1.12359202
H        1.51088679      -2.06972361       0.80451924
H        1.29865909      -2.40171003      -0.20218539
H        0.57681406      -2.36729288      -0.29880494
