21
Properties=species:S:1:pos:R:3 pbc="F F F"
H        0.00000000       0.00000000       0.00000000
H       -0.43620220       0.58582085      -0.72101700
H       -1.40170634       0.67021406      -0.62752682
H       -1.64654255       0.26085210       0.22131884
H       -0.79633152      -0.49504808       0.41726169
H       -1.86204517      -0.00562108      -1.33141768
H       -1.53643417      -0.68980664      -0.26658121
H       -0.23637831       0.17645890      -1.58157158
H       -2.50330186      -0.70243782      -0.93574071
H       -2.18571043      -1.59622860      -1.15559196
H        0.59118068      -0.63587439      -0.44071537
H       -0.95131481       0.54399872       0.84143758
H        0.60841405      -0.33742258      -1.42252660
H       -2.53722095      -0.58442974       0.03017050
H       -0.76754332      -0.33584893       1.21581304
H        0.28407899      -1.13203275      -1.88237691
H        0.20347324      -1.51572204      -0.28705364
H        0.08886391      -0.02054042       1.55523646
H       -2.84280205       0.30936104       0.26643133
H       -1.84388328      -2.01559687      -0.22209752
H       -0.88225478      -2.09999013      -0.09478123
