21
Properties=species:S:1:pos:R:3 pbc="F F F"
H        0.00000000       0.00000000       0.00000000
H        0.88292891      -0.28314662      -0.29719594
H        1.07753277      -0.92601418       0.47880313
H       -0.52842671      -0.52769721       0.62478936
H       -0.08317816      -1.39254165       0.66790295
H        0.92327517      -0.51665223       1.34868145
H        1.03093505       0.44877893       1.41511118
H        1.76028872       0.79586941       0.87139022
H       -0.02257609      -0.81510401       1.61252952
H        2.29957938       0.00125927       0.71070087
H        2.70818949       0.15274006      -0.16001844
H        0.28403437       0.73192555       0.85830939
H       -0.49524081      -0.12878603       1.56982517
H        2.15379763       0.83823425      -0.57330811
H       -0.22111207       0.09605116       0.32113934
H        2.41640544      -0.67899096      -0.57371700
H        1.18351364       0.41886607      -0.78965616
H        1.43638802       1.29091752       0.03273684
H        1.84480381      -0.41479909      -1.38414788
H        0.71879774      -1.16292810       0.07004327
H        0.89093614       1.34778857       0.21293330
