21
Properties=species:S:1:pos:R:3 pbc="F F F"
H        0.00000000       0.00000000       0.00000000
H       -0.32983679       0.96807545      -0.08579928
H        0.34701422      -0.40936196      -0.81244379
H        0.88750231      -1.18396401      -0.57595885
H       -0.21053292       0.98497444      -1.05199909
H       -0.39744925       1.97435725      -1.25076497
H       -0.59890991       0.25316322      -1.56354249
H        0.35104376       1.49577260       0.36807099
H        0.76515293       0.27613223      -1.36318755
H        1.22679102       0.93721485      -0.81736612
H        1.79663491       0.62190634      -0.09354329
H        1.41402161      -0.13322973      -1.96273172
H        2.45261931      -0.08717358      -0.21581766
H        0.82421905       0.11162928       0.39565089
H       -1.09662461      -0.33265764      -0.88352937
H        2.68472242      -0.06936112      -1.21538484
H        2.12362814      -0.99876624       0.12195066
H       -0.82078505       2.35281134      -0.45980340
H        1.22332644       0.15224531       0.53796035
H        2.20918226       0.76820087      -1.56989193
H       -2.11243200      -0.24370264      -0.99991846
