21
Properties=species:S:1:pos:R:3 pbc="F F F"
H        0.00000000       0.00000000       0.00000000
H       -0.07115869       0.77136850       0.67323917
H        0.64854413       1.35455930       0.37327698
H        0.22323236       2.10196781      -0.18691441
H        0.77672428       0.05341591      -0.66870779
H        1.58609164      -0.35594606      -0.31457752
H        0.75056458       2.22635460      -1.05856371
H       -0.79849744       2.04855180      -0.26777732
H       -0.99428004       1.11945415      -0.05212128
H       -0.88722843       1.27034819       0.49127692
H        0.49089146       0.10409255      -1.59811211
H        1.28204083       0.79833800      -0.21206370
H        1.36418176       1.47269392      -0.99914694
H        1.09517193       0.85797936      -1.77573156
H        0.04069322       2.10834646      -1.71447349
H       -0.49829888       0.33370608      -1.74678588
H       -0.85114634       0.35151854      -0.78319609
H       -0.85731703       1.94867754      -1.24393415
H       -0.83869731      -0.09351680      -0.67228621
H        0.43890101       1.44117022      -2.19675159
H        1.56983161      -0.90886950      -1.24093521
