21
Properties=species:S:1:pos:R:3 pbc="F F F"
H        0.00000000       0.00000000       0.00000000
H       -0.30820453      -0.91843063       0.09775501
H        0.91605562      -0.05341591      -0.45968771
H       -0.62086636       0.29845181      -0.76077282
H        0.90201521       0.58945167      -1.25959277
H        0.97460496      -0.99206120      -0.71183431
H        0.10226417       1.23231924      -1.23853350
H        0.32529217      -1.47465193      -0.48758566
H       -1.23573244      -0.36263081      -1.12542391
H       -0.14401972       0.61376035      -1.54897261
H        1.09347773      -1.07645440      -1.67454302
H        0.25201422      -1.57150245      -1.99107182
H       -1.18975878      -0.97184652      -0.42505747
H       -0.33887845      -0.98831165      -2.49979115
H        0.03405719       1.28299582      -0.26856411
H       -1.19498038      -0.87030357      -2.05121088
H        0.14689112       0.34089214       0.12263021
H       -0.14323211      -1.95039690      -1.40116251
H       -0.98466665       1.18947899      -0.61146903
H        0.12306121      -0.07671899      -2.40526891
H        1.03986740      -0.10837895      -2.01111364
