21
Properties=species:S:1:pos:R:3 pbc="F F F"
H        0.00000000       0.00000000       0.00000000
H        0.12529835      -0.08895500      -1.01474690
H        0.52271116       0.86938608      -1.31101155
H        0.60156369       0.70907992       0.28876936
H        1.48647821       0.72597891      -0.11706513
H        0.11617395       1.66399622      -0.92193180
H       -0.94291937       0.08439321       0.22768791
H        1.49739158      -0.09049350      -0.73881876
H       -0.85542345       1.39980435      -0.72312319
H        0.59167230       1.85875475      -0.03350937
H        1.10800481      -0.82322520      -0.33904371
H       -0.87254590       0.97907329       0.72560263
H        1.41726279       1.27293396       0.13542317
H       -0.80744934      -0.10676746      -1.44251847
H       -1.06502247       0.52311498      -1.21384501
H        1.32253003      -0.84103763       0.66444302
H       -0.08731085       1.71546209       0.57212001
H        2.24172926      -0.44212645       0.88640338
H        0.09921873      -0.84103763      -0.52707946
H        0.49325484       1.22041404       1.25855637
H        0.56622368      -0.65626669       1.24918342
