21
Properties=species:S:1:pos:R:3 pbc="F F F"
H        0.00000000       0.00000000       0.00000000
H       -0.92830116      -0.43148959      -0.07346868
H        0.55375272      -0.58319080      -0.54891467
H        0.90170640      -1.21906519       0.10120296
H        0.31881359      -0.01781246       0.97537917
H        0.41247350      -1.20216620       0.94288367
H       -0.50596499      -0.98432767       0.70397347
H       -1.02131426      -1.04138970      -0.82674915
H        1.28679967      -0.35016465       0.89876968
H       -0.15433133      -0.95699650      -1.26181161
H        0.51292932      -2.12059689       1.25021851
H        1.24121833      -1.14456367       1.54697978
H       -1.18883789      -1.94804668      -0.51374763
H       -1.04221952      -1.75892973       0.45803940
H       -0.34265158      -0.51679218       1.48679280
H        0.62480164      -0.73520172       2.17984152
H        0.18636402      -1.92507195      -1.25284028
H       -0.34022593      -2.19586658       1.39380050
H       -0.34732747      -2.42001247       0.62583601
H        0.43364823      -2.18291712       0.19898644
H       -0.22573346      -1.03346658       1.99019444
