6
Properties=species:S:1:pos:R:3 pbc="F F F"
H        0.00000000       0.00000000       0.00000000
H        0.87747955       0.49504808      -0.19565487
H        0.81513441      -0.34251389       0.39419836
H        0.39225918      -0.84879911      -0.27153963
H        1.26516354      -0.41654459      -0.46402735
H        0.41311169      -0.08419240      -0.92972434
