6
Properties=species:S:1:pos:R:3 pbc="F F F"
H        0.00000000       0.00000000       0.00000000
H        0.24483983      -0.86484438      -0.37437752
H        0.38101846      -0.08439321      -0.89205587
H        1.24836373      -0.51544845      -0.56143260
H        0.88305920      -0.43105525       0.33717263
H        0.95033616       0.29845181      -0.24720769
