11
Properties=species:S:1:pos:R:3 pbc="F F F"
H        0.00000000       0.00000000       0.00000000
H       -0.01035373      -0.77460212      -0.58986890
H       -0.21840397      -0.21882331      -1.36180532
H        0.53023666      -0.04279089      -0.93667614
H       -0.83486891      -0.27562240      -0.45110694
H       -0.17516014       0.53483737      -0.74683672
H       -0.73221862      -0.12986831      -0.47783393
H        0.50535959      -0.16146302      -0.74353307
H       -0.69888496      -0.86781424      -1.24578297
H       -0.23042113      -0.21882331      -1.40346897
H       -0.38028079      -0.36202514      -1.34071565
