6
Properties=species:S:1:pos:R:3 pbc="F F F"
H        0.00000000       0.00000000       0.00000000
H        0.41703188       0.87984765      -0.00365971
H        0.99433213       0.12438690      -0.22170994
H        0.14599179       0.49897972       0.82326579
H        1.13392830       0.68016571       0.56549001
H        0.76491493      -0.27549958       0.62759322
