9
Properties=species:S:1:pos:R:3 pbc="F F F"
H        0.00000000       0.00000000       0.00000000
H        0.05739931      -0.52769721       0.81627315
H        0.73331511       0.52595156       0.48882282
H       -0.43769056       0.61471456       0.69561261
H        0.39907336       0.17493811       0.92903018
H        0.22389203       1.08217287       1.18483281
H       -0.87061048      -0.16184512       0.57487321
H       -0.09922349       0.96572804       0.24075621
H       -0.42279443       0.05599338       1.41157389
