6
Properties=species:S:1:pos:R:3 pbc="F F F"
H        0.00000000       0.00000000       0.00000000
H       -0.33100656      -0.58582085      -0.77496612
H       -0.05494988       0.20857817      -1.36322355
H        0.59773415      -0.12377402      -0.64428717
H        0.19602299       0.75607359      -0.53222865
H       -0.72317594       0.35628283      -0.66556931
