6
Properties=species:S:1:pos:R:3 pbc="F F F"
H        0.00000000       0.00000000       0.00000000
H       -0.92501378       0.29845181       0.32954502
H       -0.61250079      -0.68549418       0.32093814
H       -0.73186374      -0.21583316       1.16546869
H       -0.09229112       0.50671470       0.81590426
H        0.19984400      -0.45588064       0.90463102
