10
Properties=species:S:1:pos:R:3 pbc="F F F"
H        0.00000000       0.00000000       0.00000000
H        0.21426670       0.05341591       1.00227761
H       -0.77284545       0.31760776       1.09786010
H       -0.13254113       0.88514692       0.63348401
H       -0.59662771      -0.55577880       0.53217119
H       -0.90344346       0.32892561       0.24663612
H       -0.54805839      -0.41624510       0.61973387
H        0.23863088       0.68171579       0.37925100
H        0.21144032       0.68171579       0.39505574
H       -0.60160333       0.28314662       0.71131027
