6
Properties=species:S:1:pos:R:3 pbc="F F F"
H        0.00000000       0.00000000       0.00000000
H       -0.06381270       0.34709048       0.90747839
H        0.75164497      -0.06227148       0.56760693
H        0.59964770       0.88479042       0.73503309
H        0.71402299       0.59881115      -0.14626652
H       -0.22306150       0.86697799       0.12171733
