6
Properties=species:S:1:pos:R:3 pbc="F F F"
H        0.00000000       0.00000000       0.00000000
H       -0.67230010      -0.60990006       0.35227177
H       -0.84084982       0.40247959       0.35079268
H        0.19049197      -0.45023113       0.88464344
H        0.04009402       0.56214851       0.85255718
H       -0.69909567      -0.11787894       1.27387321
