21
Properties=species:S:1:pos:R:3 pbc="F F F"
H        0.00000000       0.00000000       0.00000000
H        0.65604281      -0.46966103       0.54505712
H       -0.31555462      -0.73385286       0.74386573
H        0.60517740      -0.58766913      -0.42011005
H       -0.30644801      -0.86484438      -0.32587522
H        0.40926048      -1.39079595       0.18838173
H       -0.30842438      -0.83457464       0.66678548
H        0.19552878       0.11352977       1.17424417
H        0.52876306      -1.26427114      -0.00308102
H        0.50251675      -1.24426317      -0.02457631
H        0.40376198      -1.20147228      -0.04559308
H        1.27351356       0.33435830      -0.06701893
H        1.27351356       0.33435830      -0.06701893
H        1.27351356       0.33435830      -0.06701893
H        1.27351356       0.33435830      -0.06701893
H        1.27351356       0.33435830      -0.06701893
H        1.27351356       0.33435830      -0.06701893
H        1.27351356       0.33435830      -0.06701893
H        1.27351356       0.33435830      -0.06701893
H        1.27351356       0.33435830      -0.06701893
H        1.27351356       0.33435830      -0.06701893
