21
Properties=species:S:1:pos:R:3 pbc="F F F"
H        0.00000000       0.00000000       0.00000000
H       -0.58002573       0.67024595       0.51736289
H        0.33322239       0.98555446       0.63827378
H        0.04937679       0.14254874       1.04028654
H        0.14754938       0.91843063      -0.28770688
H       -0.46964812       1.36710167       0.10782492
H        0.90945667       0.45488253       0.22017524
H        0.79301447      -0.26971683       0.57641870
H       -1.23147416       1.12987077      -0.06204242
H       -0.71183741       0.51515621      -0.69877434
H       -0.67221367       1.43358684      -1.01967311
H       -0.53033423       1.59325576      -0.01583052
H       -0.56834537       0.70898747      -0.65956259
H       -1.41166484       1.82672644      -0.44601619
H       -1.09403241       0.41871476       0.31329659
H       -1.09403241       0.41871476       0.31329659
H       -0.84324372       2.15818620      -1.35316515
H       -1.63158417       2.21160221      -0.69819182
H       -0.64654893       2.40882969      -0.43308371
H       -0.83143467       2.15818620      -1.35896182
H       -1.03734469       1.77112710      -1.73164296
