6
Properties=species:S:1:pos:R:3 pbc="F F F"
H        0.00000000       0.00000000       0.00000000
H        0.50421435      -0.31530851      -0.77097952
H        0.98171103      -1.10104561      -0.20640761
H        0.95656800      -0.08439321       0.16098566
H       -0.01182276      -1.00080276      -0.31069234
H        0.30984747      -0.75463915       0.59208512
