6
Properties=species:S:1:pos:R:3 pbc="F F F"
H        0.00000000       0.00000000       0.00000000
H       -0.96783787       0.05067664       0.09371616
H       -0.11552835      -0.96046287       0.11056736
H       -1.13568175      -0.90704697       0.20934924
H       -0.46795890      -0.43148959       0.80508077
H       -0.64844692      -0.43451130      -0.59135628
