21
Properties=species:S:1:pos:R:3 pbc="F F F"
H        0.00000000       0.00000000       0.00000000
H       -0.81573808      -0.52769721      -0.06456009
H       -0.71656215       0.28314662       0.59533817
H       -0.45896652       0.87668937      -0.27219361
H       -1.33454311       0.35073781      -0.37251535
H       -0.59867513       0.01838562      -1.00604856
H       -0.21269402      -0.03503029      -0.05658072
H       -1.23413575       0.72188127      -0.47383571
H       -1.24073470       0.72188127      -0.44650751
H       -0.97369170       0.75868130       0.54584855
H       -1.00208354       0.75868130       0.52728051
H       -0.11389774       1.99369955      -0.46079418
H       -0.11389774       1.99369955      -0.46079418
H       -0.11389774       1.99369955      -0.46079418
H       -0.11389774       1.99369955      -0.46079418
H       -0.11389774       1.99369955      -0.46079418
H       -0.11389774       1.99369955      -0.46079418
H       -0.11389774       1.99369955      -0.46079418
H       -0.11389774       1.99369955      -0.46079418
H       -0.11389774       1.99369955      -0.46079418
H       -0.10749146       1.99369955      -0.44856799
