21
Properties=species:S:1:pos:R:3 pbc="F F F"
H        0.00000000       0.00000000       0.00000000
H       -0.02481474      -0.91159266      -0.47085762
H        0.81300920      -0.46966103       0.25786686
H        0.21113892      -0.99598587       0.47002733
H        0.87788469      -1.24394488      -0.11308703
H        0.76364589      -0.19475858      -0.65744811
H        0.09351725      -0.86484438       0.43744665
H        1.09206414      -1.36345184       0.52493858
H        1.08607411      -1.37631798       0.48473620
H        1.10126495      -1.36345184       0.51498079
H        0.75664973       0.58686221      -0.38272715
H        0.75664973       0.58686221      -0.38272715
H        0.75664973       0.58686221      -0.38272715
H        0.78111577       0.60854316      -0.34730810
H        0.75664973       0.58686221      -0.38272715
H        0.71768236       0.60854316      -0.34060347
H       -0.38603425      -0.60851103      -1.25521600
H       -0.38603425      -0.60851103      -1.25521600
H       -0.38603425      -0.60851103      -1.25521600
H       -0.38603425      -0.60851103      -1.25521600
H       -0.38603425      -0.60851103      -1.25521600
