6
Properties=species:S:1:pos:R:3 pbc="F F F"
H        0.00000000       0.00000000       0.00000000
H       -0.78841746      -0.36585209      -0.54577839
H       -0.62063879       0.63587439      -0.39816093
H        0.31074780       0.55622131      -0.80459780
H       -0.40850866       0.17776710      -1.34079123
H        0.14121240      -0.45024529      -0.82277489
