6
Properties=species:S:1:pos:R:3 pbc="F F F"
H        0.00000000       0.00000000       0.00000000
H        0.36038706      -0.22961354      -0.93312520
H       -0.37453055      -0.79439902      -0.53101873
H        0.14393920      -0.81129801       0.29297423
H        0.78277880      -0.20139796      -0.11686328
H        0.46010891      -1.07808733      -0.54186189
