6
Properties=species:S:1:pos:R:3 pbc="F F F"
H        0.00000000       0.00000000       0.00000000
H        0.15607943       0.96046287      -0.03480161
H       -0.96395284       0.05067664       0.12762393
H       -0.80554909       1.04485607       0.09251460
H       -0.35782063       0.49045309       0.74992716
H       -0.47292507       0.42913085      -0.62319237
