7
Properties=species:S:1:pos:R:3 pbc="F F F"
H        0.00000000       0.00000000       0.00000000
H       -0.12270200      -0.91159266      -0.45526573
H       -1.01580727      -0.08895500      -0.11638907
H       -0.77235699      -0.79358459       0.26033422
H       -0.93168169      -0.90261579      -0.64453673
H       -0.39072174      -0.14895511      -0.94020343
H       -0.51407969      -0.79439902       0.39746213
