6
Properties=species:S:1:pos:R:3 pbc="F F F"
H        0.00000000       0.00000000       0.00000000
H        0.49089283       0.77460212       0.32722577
H       -0.43995792       0.92608291       0.08508682
H        0.25260735       1.23815024      -0.55689359
H       -0.29426917       0.49504808      -0.84950393
H        0.70982283       0.34709048      -0.56898212
