6
Properties=species:S:1:pos:R:3 pbc="F F F"
H        0.00000000       0.00000000       0.00000000
H       -0.33764970       0.29845181       0.92208624
H       -0.85153461      -0.28473899       0.33568043
H       -1.26776433       0.49321038       0.53442705
H       -0.91537857       0.11475617      -0.29059273
H       -0.38189811       0.77583879       0.18525314
