6
Properties=species:S:1:pos:R:3 pbc="F F F"
H        0.00000000       0.00000000       0.00000000
H        0.05110265      -0.33235219      -0.96966726
H        0.43944827      -0.85830379      -0.17853737
H        0.97386897      -0.12649256       0.17770383
H        1.03456593      -0.41852733      -0.81138223
H        0.60949302       0.49306533      -0.60733390
