6
Properties=species:S:1:pos:R:3 pbc="F F F"
H        0.00000000       0.00000000       0.00000000
H       -0.19310522      -0.77460212      -0.55746114
H       -0.52842671      -0.52769721       0.62478936
H       -0.52755773      -1.38450217       0.12387902
H       -0.85906154      -0.43977645      -0.12911563
H        0.31688231      -0.94472575       0.32778716
