6
Properties=species:S:1:pos:R:3 pbc="F F F"
H        0.00000000       0.00000000       0.00000000
H        0.50912565      -0.18477097       0.80914259
H       -0.44217610       0.14758122       1.00379825
H       -0.33721167      -0.56149870       0.34482247
H       -0.71372336       0.30334568       0.10327740
H       -0.16725086       0.64286757       0.78235048
