6
Properties=species:S:1:pos:R:3 pbc="F F F"
H        0.00000000       0.00000000       0.00000000
H        0.45934626      -0.55622131       0.73002923
H        0.84935838       0.36585209       0.44504660
H        0.42192084       0.28145888       1.31581402
H       -0.11651309       0.70907992       0.65703219
H       -0.39326611      -0.15148079       0.87775636
