6
Properties=species:S:1:pos:R:3 pbc="F F F"
H        0.00000000       0.00000000       0.00000000
H       -0.27385142       0.28314662      -0.89044607
H       -0.35460204      -0.61064416      -0.51271832
H        0.47299129      -0.77460212      -0.35260716
H        0.67712396       0.09024227      -0.75064600
H        0.19197133      -0.58983111      -1.26636231
