6
Properties=species:S:1:pos:R:3 pbc="F F F"
H        0.00000000       0.00000000       0.00000000
H        0.36329272       0.89468008       0.34769225
H        0.70657307       0.52595156      -0.52673846
H        1.00642896      -0.35073781      -0.08534735
H        1.33298326       0.61034477       0.21390253
H        0.71599168      -0.01781246       0.73509359
