8
Properties=species:S:1:pos:R:3 pbc="F F F"
H        0.00000000       0.00000000       0.00000000
H       -0.50007260       0.47200781      -0.61275923
H       -0.77728742       0.49897972       0.30806559
H       -0.25819641       1.20381904      -0.01777250
H        0.40035108       0.85764241      -0.39685324
H        0.31092441       0.67786747       0.65513194
H       -0.63681465       0.34551528       0.44381088
H       -0.05150354       1.29976702      -0.91247487
