8
Properties=species:S:1:pos:R:3 pbc="F F F"
H        0.00000000       0.00000000       0.00000000
H       -0.06381270       0.34709048       0.90747839
H        0.79552454       0.04882568       1.05210054
H        1.20139909       0.88055670       0.74952781
H        0.84455323      -0.23432094       0.12178606
H        1.21799469       0.48164552      -0.19594479
H        0.20852435       0.83104146      -0.34766662
H        0.17444713       1.16339362       0.62274808
