18
Properties=species:S:1:pos:R:3 pbc="F F F"
H        0.00000000       0.00000000       0.00000000
H        0.80713278      -0.08439321       0.53802919
H        1.22742236      -0.64061451      -0.21516299
H        0.39559987      -0.43148959      -0.84299546
H       -0.03523079      -1.26322055      -0.57715839
H        0.39669645      -0.96108258       0.87903017
H        0.77824253      -1.46006227       0.13505250
H       -0.43770903      -0.79355955       0.17483270
H       -0.44524133      -0.73146904       0.33889842
H       -0.08693235      -1.39863372      -1.16480935
H        0.71005708      -1.95441246      -1.22788560
H       -0.42721444      -2.23036480      -0.78998601
H       -0.53235656      -2.00075126       0.20477355
H       -0.05542746      -1.12406182      -0.03455520
H        0.77711564      -1.76964152      -0.27424848
H        0.23740163      -2.83110189      -0.98022366
H        0.33849972      -2.67962122      -0.02372289
H       -0.51439142      -2.20996022      -0.03120739
