10
Properties=species:S:1:pos:R:3 pbc="F F F"
H        0.00000000       0.00000000       0.00000000
H        0.69739223       0.29845181      -0.69129914
H        0.02887994       0.96869779      -1.08776557
H        0.47580057      -0.47291669      -1.33099580
H       -0.75685120       0.55622131      -0.41366416
H       -0.99084002      -0.10486132      -1.08914924
H       -0.25459936       0.25961787      -1.69184017
H       -0.04022819       0.95513248      -1.03062868
H       -1.22233081       0.56672609      -0.02693188
H       -1.22233081       0.54571652      -0.02693188
