8
Properties=species:S:1:pos:R:3 pbc="F F F"
H        0.00000000       0.00000000       0.00000000
H        0.52691501       0.55577880      -0.60127473
H       -0.07277602       0.29158694      -1.39114642
H       -0.58658183      -0.23709527      -0.66936195
H       -1.10211587       0.55751491      -0.44379544
H       -0.60198933       1.10805941      -1.06460392
H        0.00118613       1.26870108      -0.34890831
H       -0.60643286       0.59286594       0.23261839
