8
Properties=species:S:1:pos:R:3 pbc="F F F"
H        0.00000000       0.00000000       0.00000000
H        0.49089283       0.77460212       0.32722577
H       -0.32484525       1.30229926       0.26266569
H       -0.06261855       1.49705780      -0.71028352
H       -0.86169046       0.55622131      -0.03783277
H        0.24877921       0.18477097      -0.92305440
H        0.75120258       1.00421572      -0.63861084
H       -0.61139238       0.70770210      -0.96652287
