12
Properties=species:S:1:pos:R:3 pbc="F F F"
H        0.00000000       0.00000000       0.00000000
H        0.54628479      -0.64623839      -0.66938484
H        0.67972535       0.12836373      -1.24405527
H        1.45657766       0.42681554      -0.64342988
H        0.07554851       0.75366068      -0.61184061
H        1.26337790      -0.38965687      -0.05235410
H        0.83232874       0.22961354       0.55482459
H        0.97876662       1.02422369       0.01149088
H        0.20516711       0.77358007      -0.52402985
H        1.48231721       1.03472853       0.34715423
H        1.93962550       0.50899184      -0.25518104
H        1.67052412      -0.27778071       0.14093915
