8
Properties=species:S:1:pos:R:3 pbc="F F F"
H        0.00000000       0.00000000       0.00000000
H        0.47219095      -0.55577880       0.64514065
H        0.00925052      -0.24047029       1.44158757
H       -0.67978173      -0.68549418      -0.12671000
H       -1.21116078      -0.28658301       0.65548569
H       -0.77301133      -0.86977381       1.30044651
H       -0.21964934      -1.21686149       0.46517465
H       -0.44971177       0.36942977       0.83707410
