8
Properties=species:S:1:pos:R:3 pbc="F F F"
H        0.00000000       0.00000000       0.00000000
H       -0.72715116       0.63587439       0.12237607
H       -1.36035597      -0.02520823       0.45416266
H       -0.29621020      -0.19475858      -0.96314722
H       -0.69515306      -0.73428816       0.40151638
H       -1.01126194       0.51786631      -0.80142909
H       -1.64446676      -0.14321631      -0.46964249
H       -1.02860963      -0.85867506      -0.56111467
