8
Properties=species:S:1:pos:R:3 pbc="F F F"
H        0.00000000       0.00000000       0.00000000
H        0.73469222      -0.22961354      -0.67884368
H        0.44828239      -0.60990006       0.61247510
H        0.50064963       0.75366068       0.35973102
H        1.18395138      -0.78539234      -0.01752913
H        0.95035660       0.16470206       0.92227173
H        1.28770161       0.56478548      -0.33761835
H        1.70206177      -0.07108891       0.27232444
