5
Properties=species:S:1:pos:R:3 pbc="F F F"
H        0.00000000       0.00000000       0.00000000
H       -0.50007260       0.47200781      -0.61275923
H       -0.79867560       0.52769721      -0.17808382
H       -0.73626781       0.80436003       0.32908881
H       -0.27034208       0.95566529       0.25873312
