21
Properties=species:S:1:pos:R:3 pbc="F F F"
H        0.00000000       0.00000000       0.00000000
H        0.35866648      -0.83756196      -0.47241095
H        0.99112761      -1.06717551      -1.24739122
H       -0.44654387      -0.68549418       0.52797455
H        0.16435561       0.06909496      -0.76952612
H       -1.14869261      -0.50072324      -0.12079954
H        0.02912045      -0.94916743      -1.15423965
H       -0.46633339      -1.05694461       0.40676820
H       -1.72418880       0.05094367      -0.58210802
H       -1.24018300      -0.74366647      -0.86915147
H       -1.84239674      -0.72042483       0.08448142
H        0.16361499      -1.01649892      -0.73678797
H       -1.17006743      -1.38653398      -1.66610134
H       -0.89158291      -0.47494131      -1.28561604
H        0.22152585      -1.24195886      -0.77252102
H        0.50579846      -0.82004184      -0.71279746
H        0.33498663      -0.39648563      -0.83371150
H       -0.30414709       0.54977083      -0.19512072
H       -0.35627931       0.52337980      -0.17878515
H        0.34195745      -0.90665692       0.09538997
H        2.23584461      -1.04205537      -1.98558044
