5
Properties=species:S:1:pos:R:3 pbc="F F F"
H        0.00000000       0.00000000       0.00000000
H       -0.77018702      -0.01689900       0.59547228
H       -0.18934441      -0.54285055      -0.06734043
H       -0.75977749      -0.85446095       0.00242472
H        0.14990669      -0.50737047      -0.00555833
