21
Properties=species:S:1:pos:R:3 pbc="F F F"
H        0.00000000       0.00000000       0.00000000
H        0.15274149      -0.33235219      -0.95892441
H        0.52368683       0.63587439      -0.51911145
H        0.01166695       0.05226156       0.03922266
H        0.77289009       1.08686936      -0.71886861
H        0.78885210       1.06362772      -0.74740100
H        0.03471795      -0.15873575      -0.24060655
H       -0.00263321      -0.48176992      -0.57941610
H        0.01598173      -0.48176992      -0.67038935
H        0.09895685      -0.48176992      -0.83574045
H        0.22838742      -0.44232976      -1.04831100
H        0.23508212      -0.39769471      -1.13410783
H        0.57445681       1.08255184      -0.03877077
H        0.57445681       1.08255184      -0.03877077
H        0.60526788       1.09904623      -0.05906591
H        0.04050818       0.32569784      -0.32761121
H        1.62891340       1.15752745      -1.07372737
H        1.62891340       1.15752745      -1.07372737
H        1.62891340       1.15752745      -1.07372737
H        1.62891340       1.15752745      -1.07372737
H        1.61206603       1.20012999      -1.06527317
