8
Properties=species:S:1:pos:R:3 pbc="F F F"
H        0.00000000       0.00000000       0.00000000
H       -0.93989587      -0.24138860      -0.47165081
H       -0.53664577       0.19475858       0.85288006
H       -0.93058151      -0.33235219      -0.27727985
H        0.40278238       0.56061065       1.04510617
H        0.45234305      -0.35098201       1.51400530
H       -0.09332216       0.46549040       1.21576691
H        0.77670592       0.55064207       1.01803148
