6
Properties=species:S:1:pos:R:3 pbc="F F F"
H        0.00000000       0.00000000       0.00000000
H       -0.96783787       0.05067664       0.09371616
H       -0.21022096      -0.94706190       0.08331776
H        0.58488274      -1.21125376      -0.50941879
H       -0.82168150      -0.39891118       0.46800998
H       -0.11029041      -0.56838620      -0.11346489
