9
Properties=species:S:1:pos:R:3 pbc="F F F"
H        0.00000000       0.00000000       0.00000000
H       -0.51304650      -0.77136850      -0.44169885
H       -0.20324254      -1.52502918       0.09129083
H        0.17487118      -1.03770936      -0.79396427
H       -0.50795668      -0.52595156      -0.72019362
H       -0.51758099      -0.81366080      -0.13463652
H       -0.30575225       0.86878568       0.00805115
H       -0.15685809      -0.87668937      -0.51003450
H       -0.08310329      -0.49085766      -0.23990475
