6
Properties=species:S:1:pos:R:3 pbc="F F F"
H        0.00000000       0.00000000       0.00000000
H       -0.30820453      -0.91843063       0.09775501
H       -0.30461174      -0.96807545      -0.15285775
H       -0.08976253      -0.99825430       0.22080505
H       -0.01541187       0.60504943      -0.00459218
H       -0.02477480      -0.76173866       0.03937407
