11
Properties=species:S:1:pos:R:3 pbc="F F F"
H        0.00000000       0.00000000       0.00000000
H        0.58115071      -0.52769721      -0.57607329
H        0.91267163      -1.30229926      -0.08807081
H        0.74374664      -0.95918679       0.34082544
H        0.88931388      -1.05539441       0.18197155
H       -0.78762007      -0.49897972       0.28059718
H       -0.03215224      -1.10887980       0.35374942
H        0.94942755      -0.29535663      -0.91635513
H        0.55912524      -0.16679549      -0.99400455
H       -0.67732179      -0.19475858       0.74607515
H       -0.50062257      -0.83173102      -0.07524280
