21
Properties=species:S:1:pos:R:3 pbc="F F F"
H        0.00000000       0.00000000       0.00000000
H       -0.81573808      -0.52769721      -0.06456009
H       -0.62792426       0.05067664       0.74243110
H        0.33189479       0.52595156       0.81642187
H        0.88949215       0.40156466      -0.03618413
H        0.72437942       0.00265348       0.89490747
H        1.42736006      -0.01515898       0.14736164
H        1.73244178      -0.31361079       1.08072948
H        0.12010473      -0.74553573       0.09293762
H        1.34646034      -0.36702669       2.03019714
H        1.74877787      -1.03727269       1.36518979
H        1.85045469      -0.09862739       1.12713993
H        1.78974891      -0.71411717       1.23578894
H        1.57950211      -0.43400425       1.53360152
H        1.49109578      -0.64021409       0.66645336
H        1.69598496      -0.15701546       0.60540372
H        0.67001760       1.02706063       0.92587066
H        0.13502175       0.81912589       0.69652826
H        1.70299220       0.65637523       0.05238730
H        1.98293459       0.61116451       0.51990294
H        1.95140505       0.70079827       0.57572550
