21
Properties=species:S:1:pos:R:3 pbc="F F F"
H        0.00000000       0.00000000       0.00000000
H        0.07742673      -0.40936196      -0.88005048
H        0.77176988       0.48731983      -0.57534164
H        0.65984660       0.66108263      -0.27501494
H       -0.78670692      -0.78781617      -0.63899785
H       -0.20290226      -0.05600494      -0.90673912
H       -0.25908738       0.06982625      -0.83746970
H       -0.07188606      -0.34691748       0.26897663
H       -0.10410923      -0.22918123       0.22804630
H       -0.01675522      -0.22918123       0.15149540
H       -0.29381394      -0.51110244       0.46112221
H       -0.18091047      -0.51110244       0.40322012
H       -0.09556472      -0.38728917       0.30528957
H        0.34824815       0.00846386      -0.83447260
H        0.34824815       0.00846386      -0.83447260
H       -1.27543855      -0.91858190      -1.59197688
H       -1.29473972      -1.06555629      -1.54943204
H       -0.19201630      -0.42814344       0.38411349
H        0.33450320       0.01774317      -0.91868865
H        0.18193901      -0.40068409      -0.39117229
H       -0.22224528      -0.92496073       0.33210737
