11
Properties=species:S:1:pos:R:3 pbc="F F F"
H        0.00000000       0.00000000       0.00000000
H        0.93511528      -0.39891118      -0.14054634
H        1.41759098      -0.48786616       0.76091260
H       -0.02418387      -0.45232707      -0.50140071
H        0.90021068      -1.01556337       0.12694556
H        0.46102297      -0.57225937       0.92189842
H       -0.66076285       0.77136850      -0.14733289
H       -0.10026115       0.55352998       0.61846417
H       -0.48127955       0.46913677      -0.27359170
H        1.17128325       0.06361502       1.12002742
H        1.08967113      -0.36787456       0.19240671
