6
Properties=species:S:1:pos:R:3 pbc="F F F"
H        0.00000000       0.00000000       0.00000000
H        0.80713278      -0.08439321       0.53802919
H        0.32388216      -0.34858507      -0.32799357
H       -0.98343343       0.01781246      -0.29302785
H       -0.75665557      -0.50988477       0.49320903
H       -0.15838736      -0.20878011       0.21303278
