11
Properties=species:S:1:pos:R:3 pbc="F F F"
H        0.00000000       0.00000000       0.00000000
H       -0.33100656      -0.58582085      -0.77496612
H        0.05883178       0.05704671      -1.47358704
H        0.92897165      -0.03190829      -0.93668151
H        0.63553298       0.78456414      -0.38842016
H        0.60109675      -0.95167291      -0.54988980
H       -0.19843313       0.89218420      -0.84074622
H        0.51471090      -0.33695835       0.26741511
H       -0.61367810       0.30899340      -0.18080598
H       -0.63562655      -0.57085425      -0.59727597
H        0.96459174       0.46595967       0.23181009
