21
Properties=species:S:1:pos:R:3 pbc="F F F"
H        0.00000000       0.00000000       0.00000000
H        0.15607943       0.96046287      -0.03480161
H        0.75048202      -0.15148079      -0.60157388
H        0.68487990       0.72836685      -1.01342988
H        1.18900871       1.10682106      -0.27134663
H       -0.23097587       0.80819827      -0.95710021
H       -0.58226711       0.01598554      -0.71347553
H        0.21649432      -0.20185296      -1.22590828
H        1.62472665       2.43914890      -0.80524945
H        1.42784560       2.42133641      -1.81234646
H        0.75921035       2.84851074      -0.62814724
H        0.79112983       1.68952513      -1.72804749
H        0.19738024       2.30423975      -1.15979457
H        1.50348341       2.43914890      -0.88454157
H        0.07959366       2.35060787      -1.65914917
H        1.61547589       2.36029863      -0.97627217
H        1.47896683       2.48374200      -0.79097438
H        0.07890010       2.47526217      -1.52936888
H        1.70301259       2.38813639      -0.85788810
H        0.19199574       2.61299086      -1.46590257
H       -0.15660852       1.28393674      -2.66750526
