21
Properties=species:S:1:pos:R:3 pbc="F F F"
H        0.00000000       0.00000000       0.00000000
H        0.50421435      -0.31530851      -0.77097952
H        0.62283462      -1.30572534      -0.35972396
H        0.76740432       0.08439321       0.59332067
H       -0.04826993      -1.15424454       0.32928482
H        0.60146648      -0.72275496       0.99635553
H        1.31902778      -0.11056231      -0.09401166
H       -1.00404155      -1.03623641       0.18563382
H       -0.08224116      -1.00467384       0.38470006
H        1.13612604      -0.97540671       0.31421867
H       -1.12039065      -0.41567516       0.37054494
H       -0.81470710      -1.87466240       0.20347074
H       -0.64431143      -2.46915412      -0.02096282
H        0.18849003      -3.59653902      -0.55523354
H        0.25506341      -3.59653902      -0.43342906
H        0.27447188      -3.56152058      -0.48201925
H        0.18688118      -3.52518582      -0.68723297
H       -0.60529268      -1.77111614      -0.01345202
H       -0.77565688      -0.47842196       0.98524874
H       -0.81999034      -0.43461439       0.96952182
H       -1.00657225      -1.54750633       0.40735906
