11
Properties=species:S:1:pos:R:3 pbc="F F F"
H        0.00000000       0.00000000       0.00000000
H        0.54069358       0.79439902       0.36042264
H       -0.29010814       1.35062027       0.59217727
H       -0.66974652       1.23261213      -0.29664761
H        0.28261450       1.05859089      -0.59713769
H       -0.01704117       0.33235219      -0.97086328
H       -1.04249501       0.35276449      -0.48369718
H       -0.92548335       0.64766073      -0.81797683
H       -0.72652012       0.01689900       0.64803076
H       -0.66285664       0.47077262       0.40512770
H       -1.19520080      -0.13458179      -0.19188160
