9
Properties=species:S:1:pos:R:3 pbc="F F F"
H        0.00000000       0.00000000       0.00000000
H        0.45934626      -0.55622131       0.73002923
H       -0.28376624       0.69681674       0.69803083
H        0.58755112       0.57880867       1.11629033
H        0.89294863       0.37845421       0.08646455
H        1.37769210      -0.24091280       0.65734839
H        1.05287135       0.31530851       1.45636845
H        0.13219446      -0.11644486       1.53478336
H       -0.16709834      -0.03591496       1.24376953
