8
Properties=species:S:1:pos:R:3 pbc="F F F"
H        0.00000000       0.00000000       0.00000000
H       -0.96783787       0.05067664       0.09371616
H       -0.05157401      -0.97187352       0.02937531
H       -0.35285723      -1.02528942      -0.95026708
H       -0.19664389      -0.05341591      -1.00588357
H       -1.10082710      -0.84110779       0.24407384
H       -1.32102776      -0.85800678      -0.70423365
H       -1.19465172       0.15960974      -0.74677211
