8
Properties=species:S:1:pos:R:3 pbc="F F F"
H        0.00000000       0.00000000       0.00000000
H       -0.26684549      -0.92909771       0.11675546
H        0.51959407      -1.01805270       0.77014959
H        0.76492381      -0.07940739       0.68757099
H       -0.13112760      -0.82329410       1.53953528
H       -0.85919261      -0.66125631       0.76923048
H       -0.67326498       0.28580558       0.64052296
H        0.06272924       0.16141868       1.34491229
