13
Properties=species:S:1:pos:R:3 pbc="F F F"
H        0.00000000       0.00000000       0.00000000
H       -0.33764970       0.29845181       0.92208624
H       -1.15371943      -0.20052791       0.74012399
H       -0.82774997       1.00753176       0.46924150
H       -0.71382469      -1.03225899       0.99067754
H       -0.56068605      -1.04915798       0.02925992
H       -1.01315737      -0.21742696      -0.19779550
H        0.13512868      -0.56259799       1.07288206
H       -0.08320838       1.82047069       1.48648691
H        0.29847750       1.18459630       0.85558236
H        0.34267378      -0.48276657       0.17907572
H       -0.60442817       1.99525404       0.74748850
H       -0.41505101       1.66080177       0.52851498
