8
Properties=species:S:1:pos:R:3 pbc="F F F"
H        0.00000000       0.00000000       0.00000000
H       -0.41358426      -0.01689900      -0.88131911
H        0.73845631       0.64286757      -0.30777836
H        0.21307194       1.48042953      -0.03248754
H       -0.45333728       0.89468008       0.21761617
H       -0.20051232       1.49732852      -0.91380668
H        0.31995973       0.65976655      -1.19827557
H       -0.83573735       0.91157907      -0.67767453
