10
Properties=species:S:1:pos:R:3 pbc="F F F"
H        0.00000000       0.00000000       0.00000000
H        0.17388797      -0.66108263       0.69339287
H        0.01254583      -0.66108263      -0.71475405
H       -0.14707607      -1.40849113       0.06754416
H       -1.10709071      -1.25701034       0.12658985
H       -0.93527639      -0.64229578       0.93028736
H       -0.95978129      -0.61040598      -0.72328663
H       -0.71123725       0.17417663       0.35019839
H       -0.22226837      -0.62043351       0.62870336
H       -0.99925369       0.18420416      -0.16195118
