8
Properties=species:S:1:pos:R:3 pbc="F F F"
H        0.00000000       0.00000000       0.00000000
H        0.24483983      -0.86484438      -0.37437752
H       -0.04848194       0.31530851      -0.91994077
H        1.18318534      -0.55108738      -0.80471623
H        0.75039363      -0.42670047      -1.72696519
H       -0.18585719      -0.70517546      -1.29216278
H        1.01523304       0.20474620      -0.30250320
H        0.91722745       0.51006711      -1.20768774
