9
Properties=species:S:1:pos:R:3 pbc="F F F"
H        0.00000000       0.00000000       0.00000000
H        0.42017129      -0.49897972       0.72286665
H        0.10496442      -0.70907992      -0.65897578
H        0.20257901      -1.31058264       0.03167874
H        1.36331773      -0.30422115       0.36808830
H        1.16342604      -1.15091372      -0.29174465
H        1.05998063      -0.51432133      -0.98043644
H        1.14656103       0.33165324      -0.33671039
H        0.90948826       0.21783850      -0.27099505
