9
Properties=species:S:1:pos:R:3 pbc="F F F"
H        0.00000000       0.00000000       0.00000000
H       -0.27385142       0.28314662      -0.89044607
H       -0.68818849      -0.59670103      -0.93791991
H       -0.12376872      -0.94706190      -0.18925118
H        0.68972504      -1.06507003      -0.71113527
H        0.22388846      -0.88029909      -1.54595065
H        0.83575302      -0.11800814      -0.53847796
H        0.33978540       0.08513206      -1.49524117
H       -0.70073700      -0.79590589      -1.25268197
