8
Properties=species:S:1:pos:R:3 pbc="F F F"
H        0.00000000       0.00000000       0.00000000
H        0.19410905      -0.89379078       0.33394706
H       -1.01400745      -0.12438690       0.09818678
H       -0.94015241      -0.71020776      -0.74126732
H        0.27575621      -1.17693734      -0.59407377
H       -0.70356214      -1.09985423       0.32606959
H       -0.58767968      -1.49876547      -0.61242127
H       -0.00994611      -0.29708970      -0.89788812
