12
Properties=species:S:1:pos:R:3 pbc="F F F"
H        0.00000000       0.00000000       0.00000000
H        0.73469222      -0.22961354      -0.67884368
H        0.44828239      -0.60990006       0.61247510
H        0.52158946       0.73181123       0.37477690
H        1.38907313      -0.24651255       0.04196197
H        0.85481960       0.18471009       1.00155485
H        0.98410201       0.81983340      -0.65469325
H        1.66970778       0.60199487       0.00147134
H        0.97175980       0.83160841       0.71803963
H        0.14531094       1.20444715      -0.09556091
H        0.84266424      -0.29718918       0.84628165
H       -0.11944440       0.27534944      -0.21698153
