8
Properties=species:S:1:pos:R:3 pbc="F F F"
H        0.00000000       0.00000000       0.00000000
H        0.11786898      -0.15148079      -0.95457917
H        0.71153617      -0.66108263       0.06889832
H        0.69475859      -0.84585357      -0.88694638
H       -0.01392138      -1.50693619      -0.79311967
H        0.02783430      -1.40849113       0.23399267
H       -0.73044801      -0.78438830      -0.92667884
H       -0.71876013      -0.72254789       0.12096390
