8
Properties=species:S:1:pos:R:3 pbc="F F F"
H        0.00000000       0.00000000       0.00000000
H       -0.06381270       0.34709048       0.90747839
H        0.84462953       0.03178197       1.06036472
H        1.20946074       0.58756077       0.34897947
H        0.71591175      -0.49591523       0.25226301
H        1.17110181      -0.13498712      -0.37887830
H        0.21560812       0.31863016      -0.59192848
H        0.40466756       0.98887610       0.16196191
