9
Properties=species:S:1:pos:R:3 pbc="F F F"
H        0.00000000       0.00000000       0.00000000
H       -0.12270200      -0.91159266      -0.45526573
H       -0.89749557       0.36585209      -0.33760604
H        0.39672053      -0.69375420      -1.24949968
H       -0.94186366      -0.46587893      -0.84190345
H       -0.46501702      -0.15057042      -1.63010311
H        0.66632795       0.13797683      -0.82101834
H       -0.36653477       0.68116057      -1.09041548
H        0.08264256       0.75269139      -1.39960396
