15
Properties=species:S:1:pos:R:3 pbc="F F F"
H        0.00000000       0.00000000       0.00000000
H        0.87747955       0.49504808      -0.19565487
H        1.06715393      -0.22749981      -0.89941055
H        0.50529063      -0.83173102       0.03107798
H        1.31465924      -0.27632043       0.32124794
H        0.74202824      -1.17882156      -0.84729797
H       -0.21346545      -0.72520429      -1.06034815
H        1.65517020      -0.79675555      -0.56041342
H       -0.26977330      -2.08064532      -1.70035529
H        0.21543455      -1.26417291      -2.08928967
H       -0.25402880      -2.45909953      -2.59734225
H       -0.34805828      -2.10212517      -1.63998032
H       -0.50677758      -0.90617573      -1.64366043
H       -0.48390287      -0.84816819      -1.65777493
H        0.18207751      -0.21783850      -0.93137270
