21
Properties=species:S:1:pos:R:3 pbc="F F F"
H        0.00000000       0.00000000       0.00000000
H       -0.77018702      -0.01689900       0.59547228
H       -1.05921221      -0.85446095       0.07751650
H       -0.23243338      -0.65976655       1.18781197
H       -0.13942024      -1.26966667       0.43453151
H        0.65568340      -1.00547481      -0.15820503
H       -0.43429688      -0.69681674      -0.61575687
H        0.63149869      -2.33780265       0.53050208
H        0.68038392      -0.55577880       0.41981968
H        0.15863648      -1.53437877      -0.60014355
H        1.28162169      -2.11996412      -0.16083521
H        1.33041549      -1.92844069       1.07087135
H        0.47738945      -0.31267607       0.61882985
H        1.98207521      -2.67618537       0.34246057
H        2.15441251      -1.85971296       0.93995249
H        1.41912615      -3.12045932       0.92042834
H        1.99279666      -2.57263517       1.50027394
H        0.51224267      -2.77336884       0.84865475
H       -0.14007124      -1.09460235       0.21559620
H        0.28501821      -1.70600355       0.54937035
H        0.46002296      -1.93619871       0.62376726
