15
Properties=species:S:1:pos:R:3 pbc="F F F"
H        0.00000000       0.00000000       0.00000000
H        0.79402828      -0.31375703       0.65969908
H        1.40956783      -0.33065602      -0.09454644
H        0.52996016      -1.29307616       0.50309145
H        0.70356417      -0.61380267      -0.70236856
H        0.46067816      -1.59312177      -0.51458055
H       -0.01868366      -0.90665692      -0.35452089
H        1.46235943      -1.40045810       0.03531452
H        0.78661424      -0.13076572      -0.72681880
H        2.37892723      -1.63382041       1.19955051
H        1.52867723      -2.01227474       0.91335428
H        1.73455524      -0.88641191       1.48148870
H        0.92941356      -1.25861406       1.05805922
H        1.88493395      -0.70164096       0.53739822
H        2.39328814      -1.10612321       0.38138777
