21
Properties=species:S:1:pos:R:3 pbc="F F F"
H        0.00000000       0.00000000       0.00000000
H       -0.61304885      -0.15966894      -0.80746567
H       -0.57119292       0.74740851       0.41041824
H        0.18892705       0.06994461      -1.40532541
H       -0.95083129       0.86541659      -0.47840664
H       -0.22348875       0.94979227      -1.46731091
H       -1.56295633       0.07101756      -0.26033121
H       -0.24154639       0.27959573      -0.93343717
H       -1.30990291      -0.03832865       0.37798497
H       -1.28752089       0.81902653      -1.58922553
H       -0.29220092       1.35373354      -2.57584953
H       -0.87763011      -0.69941127      -0.19137511
H       -0.21457243       1.49652004      -2.38909078
H       -0.01060212       1.58772492      -1.42016590
H        0.31099409       2.05837369      -0.76501662
H        0.29743838       1.16458297      -0.37899175
H        0.04584217       1.44966531      -1.31639242
H        0.10588838       0.60032731      -1.58156002
H        0.27543193       0.68616104      -1.63273585
H       -1.83427775       0.46247438      -1.67140222
H       -1.83427775       0.46247438      -1.67140222
