21
Properties=species:S:1:pos:R:3 pbc="F F F"
H        0.00000000       0.00000000       0.00000000
H       -0.21671417       0.94706190      -0.06457304
H       -0.95501620      -0.19475858      -0.32146075
H        0.50317383       1.07782757       0.72838897
H       -0.06326008       0.49200672       1.35232031
H       -0.98203421       0.74231571       0.66788280
H       -1.16876638      -0.10580358       0.67840016
H       -1.06602287       0.77067256      -0.38213253
H        0.23274729      -0.37677896       1.27532089
H        0.64525902      -0.04442677       0.39628732
H       -0.52003062      -0.43019485       0.57976627
H       -0.94091582       0.47510773       1.77362275
H       -0.38024205       0.66846561       0.72063661
H       -0.27524149       0.16031943       0.92058223
H        0.15814674       0.75975490       2.75394797
H        0.15814674       0.75975490       2.75394797
H       -0.28076902       0.60827410       1.89810491
H        1.41520679       0.27400935       3.41262197
H        1.04844475      -0.39623660       4.09788084
H        1.41520679       0.27400935       3.41262197
H        2.19488788      -0.30918145       3.40577984
