10
Properties=species:S:1:pos:R:3 pbc="F F F"
H        0.00000000       0.00000000       0.00000000
H        0.54628479      -0.64623839      -0.66938484
H        0.67972535       0.12836373      -1.24405527
H        1.06046975       0.55985332      -0.39424682
H        0.87757719       0.28314662       0.31264544
H        0.12535447       0.95876449      -0.53479320
H       -0.49952263       0.74740851      -0.49515820
H        0.18948594       0.84713519       0.37721771
H       -0.03702587       0.65410042      -1.48531544
H        1.00763845       0.06668383      -0.31268808
