15
Properties=species:S:1:pos:R:3 pbc="F F F"
H        0.00000000       0.00000000       0.00000000
H       -0.51304650      -0.77136850      -0.44169885
H       -0.19804287      -1.43245113       0.20002025
H        0.81679738      -1.11869407       0.01085582
H        0.79104859      -0.15966894      -0.63409138
H       -0.06929074      -0.79657674       0.92606950
H       -0.09761465       0.60150278       0.69065452
H        0.39231208      -0.68736613      -1.34865832
H        0.40814975      -1.49028420      -0.89764869
H       -0.11152959      -1.29180360      -1.29730308
H        0.82884324       0.45002198       0.94909251
H        0.64821088      -0.54823232       0.79358006
H       -0.44948834      -0.31008989       1.00451362
H        0.77522832       0.32563508      -0.06824577
H       -0.28101975      -0.44085562      -0.05314696
