21
Properties=species:S:1:pos:R:3 pbc="F F F"
H        0.00000000       0.00000000       0.00000000
H        0.68725604      -0.43977645       0.53135377
H        1.10390258       0.44007120       0.51306081
H        0.25723809       0.84943318       0.26078519
H        1.53931761       0.38665527      -0.41477782
H        1.03987455      -0.49003410      -0.60265064
H        0.16425234      -0.11157990      -0.79789156
H        0.66030848       0.86724561      -0.68289959
H       -0.11283335       0.72015113      -1.22157526
H        0.47740147       0.24814332      -0.69510651
H       -0.06551898      -0.51784587       1.82643485
H       -0.63533050      -1.28921437       1.46088135
H       -0.06642705      -0.41374287       1.82799697
H       -0.90371734      -0.42042869       1.31419194
H       -1.02349019      -0.48629636       1.23068023
H       -0.01960546      -0.51784587       1.85205507
H       -0.11050516      -0.51784587       1.79921913
H        0.13654846      -1.58747911       1.86533034
H       -0.61664897       0.31662166       1.42597675
H        0.15522999       0.61488646       1.83042574
H        0.26986653      -0.29365945       1.73173130
