10
Properties=species:S:1:pos:R:3 pbc="F F F"
H        0.00000000       0.00000000       0.00000000
H       -0.78841746      -0.36585209      -0.54577839
H       -0.41290337       0.86484438      -0.17209253
H        0.58931005       0.08895500      -0.83553851
H       -0.12858307       0.55861604      -1.29609132
H       -1.10222888       0.45548242      -0.72464478
H        0.16870695       1.01632524      -0.93814981
H       -0.72133154       1.37508845      -1.10808587
H       -0.40601730      -0.34895310      -1.44106913
H       -0.62306130       0.32179812      -0.84834445
