8
Properties=species:S:1:pos:R:3 pbc="F F F"
H        0.00000000       0.00000000       0.00000000
H        0.46564069       0.84879911      -0.10382564
H       -0.44328880       0.34709048      -0.79440808
H        0.65238816      -0.49897972      -0.52294344
H       -0.05214146       1.07841265      -0.95968956
H        1.14695597       0.35375103      -0.69039255
H        0.19520307      -0.14795759      -1.42732143
H        0.61574292       0.55246109      -1.53469336
