8
Properties=species:S:1:pos:R:3 pbc="F F F"
H        0.00000000       0.00000000       0.00000000
H       -0.47549847       0.19475858       0.88842231
H        0.59898126       0.81647241       0.16708747
H       -0.64126724       0.61471456      -0.51402944
H       -1.08401632       0.80465865       0.43478262
H        0.15041587       0.98915762       1.06302285
H        0.01674527       1.44985199      -0.33047503
H       -0.45810199       1.59905767       0.60938311
