8
Properties=species:S:1:pos:R:3 pbc="F F F"
H        0.00000000       0.00000000       0.00000000
H       -0.50007260       0.47200781      -0.61275923
H       -0.53729963       0.34709048       0.73409688
H        0.15395081       1.03258467       0.75229913
H        0.14971316       1.26640677      -0.61846149
H       -0.36568588       1.64729929       0.11556715
H        0.67098594       0.68058592       0.04366577
H       -1.03211260       0.87478769       0.08236325
