8
Properties=species:S:1:pos:R:3 pbc="F F F"
H        0.00000000       0.00000000       0.00000000
H        0.45279220       0.75366068      -0.41837266
H        1.09376442       0.19788188      -0.89620680
H        0.62792426      -0.05067664       0.74243116
H        1.06123281       0.72392547       0.34206107
H        1.69524670       0.24855852      -0.13219643
H        1.26093066      -0.56510228       0.17987192
H        0.58461773      -0.54728985      -0.59188420
