8
Properties=species:S:1:pos:R:3 pbc="F F F"
H        0.00000000       0.00000000       0.00000000
H        0.88292891      -0.28314662      -0.29719594
H        0.88292891      -0.83936793       0.56532466
H       -0.36522716      -0.70907992      -0.55845833
H        0.52908856      -1.05617046      -0.72515720
H       -0.02264923      -0.55622131       0.78399575
H       -0.35510623      -1.28803253       0.23446351
H        0.56321371      -1.53867614       0.02970232
