8
Properties=species:S:1:pos:R:3 pbc="F F F"
H        0.00000000       0.00000000       0.00000000
H       -0.47398776      -0.23709527       0.75329894
H       -0.42038047       0.74222386       1.05559707
H       -1.23483682      -0.01925677       0.18609881
H        0.12395471       0.98361248       0.15584266
H       -0.69229817       1.20145094      -0.32824245
H       -0.78098857       0.23337549      -0.65731359
H       -1.23579609       1.00641572       0.49112928
