8
Properties=species:S:1:pos:R:3 pbc="F F F"
H        0.00000000       0.00000000       0.00000000
H       -0.37664786      -0.36585209      -0.88182342
H       -0.53625453       0.77460212      -0.24593407
H       -1.27135420       0.36524016       0.24407831
H       -0.76348144      -0.37845421       0.47109383
H       -1.04535425      -0.74430633      -0.44543433
H       -0.91737676       0.39614791      -1.05807889
H       -1.57867336       0.05030382      -0.62495089
