8
Properties=species:S:1:pos:R:3 pbc="F F F"
H        0.00000000       0.00000000       0.00000000
H        0.11786898      -0.15148079      -0.95457917
H        0.71153617      -0.66108263       0.06889832
H        0.79624212      -0.77909070      -0.89388925
H        0.13021767      -1.48817062      -0.85292542
H        0.04393512      -1.43245113       0.18125239
H       -0.63385707      -0.81792468      -0.99534750
H       -0.67383772      -0.77136850       0.06524800
