8
Properties=species:S:1:pos:R:3 pbc="F F F"
H        0.00000000       0.00000000       0.00000000
H       -0.81573808      -0.52769721      -0.06456009
H       -0.35229009       0.55577880       0.71767855
H       -1.07014203       0.14254874      -0.79898012
H       -0.23473531       0.72836959      -0.68837517
H       -0.61480343       1.28459096       0.08589226
H       -1.48632002       0.75863940      -0.04509534
H       -1.21867299       0.02982724       0.55618644
