21
Properties=species:S:1:pos:R:3 pbc="F F F"
H        0.00000000       0.00000000       0.00000000
H        0.14728610      -1.02954066      -0.28719354
H        0.90883923       0.33235219      -0.34187314
H        1.02990568      -0.69718850      -0.69197559
H        1.49788308      -0.96138036       0.18239486
H        1.31783557       0.10273865       0.57099247
H        1.51622796      -0.83936501       0.21545774
H        0.41135502      -0.51053107       0.85850614
H        0.41135502      -0.51053107       0.85850614
H        0.42287660      -0.54316652       0.82064390
H        0.41135502      -0.51053107       0.85850614
H        0.43218917      -0.54316652       0.85189801
H       -0.66854149      -1.95913863      -0.29435280
H       -0.66854149      -1.95913863      -0.29435280
H       -0.66854149      -1.95913863      -0.29435280
H       -0.66854149      -1.95913863      -0.29435280
H       -0.63578904      -1.98689342      -0.29406539
H       -0.66854149      -1.95913863      -0.29435280
H        0.18811303      -2.69812775      -0.27179509
H       -0.54923546      -2.06225348      -0.27826566
H       -0.52551490      -2.06225348      -0.45742863
