12
Properties=species:S:1:pos:R:3 pbc="F F F"
H        0.00000000       0.00000000       0.00000000
H        0.21426670       0.05341591       1.00227761
H       -0.73158455       0.35186774       1.26612568
H       -0.51765490       1.28096545       1.06845808
H       -0.92973900       0.21783850       0.19024351
H        0.42342025       0.98251367       0.78805125
H       -1.01672816       0.26747453       0.33896238
H       -0.15640542       0.68549418      -0.67356956
H       -1.08614445       0.90333271      -0.48332605
H        0.15734571       0.89355868      -0.19917476
H       -0.91781425       1.15657854       0.13158870
H       -0.85688281       0.44082272       0.25137877
