21
Properties=species:S:1:pos:R:3 pbc="F F F"
H        0.00000000       0.00000000       0.00000000
H       -0.21671417       0.94706190      -0.06457304
H       -0.95501620      -0.19475858      -0.32146075
H        0.10001954       1.00321710      -1.09445345
H        0.32572290       0.05615520      -1.08057153
H       -1.18479788       0.71744835      -0.31639728
H       -0.68797672      -0.17694612      -1.31226671
H        0.30128327       0.05341591      -0.97964233
H       -0.12605782      -0.05246064       0.58966154
H       -0.12605782      -0.05246064       0.58966154
H       -0.07794182       0.05916864      -0.32333440
H        1.03357685      -0.26944664      -0.15428388
H        0.37184238      -0.08670162       0.16100267
H       -1.18479788       0.73434734       0.65714025
H       -0.24895507       0.95218587       0.81463796
H        0.88005078       0.50515544      -0.72391731
H       -1.02599907      -0.21999002       0.54721254
H        0.90013617       0.50515544      -0.72895432
H        0.38650799       0.47677565      -0.59602261
H        0.49506390       0.47677565      -0.79463953
H        0.58588302       0.33899921      -0.85844171
