8
Properties=species:S:1:pos:R:3 pbc="F F F"
H        0.00000000       0.00000000       0.00000000
H       -0.27385142       0.28314662      -0.89044607
H       -0.68959934      -0.59670103      -0.92334968
H       -0.34650370      -0.90665692      -0.07726128
H        0.48614523      -1.18980360      -0.49509454
H        0.17551816      -0.97196507      -1.39182091
H        0.83395147      -0.28314668      -0.42392632
H        0.55098951      -0.07817429      -1.30115533
