10
Properties=species:S:1:pos:R:3 pbc="F F F"
H        0.00000000       0.00000000       0.00000000
H       -0.47549847       0.19475858       0.88842231
H        0.51663464       0.64286757       0.61084694
H        0.36627874       0.72254789       0.63014942
H        0.23075128       0.57985061       0.33966845
H        0.58355176       0.06930922      -0.09012288
H        0.37752911      -0.12905540      -0.23512715
H        0.24845013      -0.17781971      -0.30822247
H        0.01170117      -0.32118672      -0.37304991
H        0.03313467       0.03579535       0.41845357
