21
Properties=species:S:1:pos:R:3 pbc="F F F"
H        0.00000000       0.00000000       0.00000000
H       -0.93989587      -0.24138860      -0.47165081
H       -0.34100795       0.26419187       0.93125725
H       -0.63197857      -0.36585209      -0.72116518
H        0.32051444       0.72773993       1.56437266
H       -0.28815186      -0.63048822       1.43133497
H       -0.40412158       0.39538774       2.21072292
H       -1.79899061      -0.76182377      -0.86564404
H       -0.13460366       0.15148079       0.95236355
H        0.41599739       0.31555632       1.79917741
H        0.51175064      -0.34272560      -0.35425702
H        0.39978951      -0.49565536       1.54711211
H        0.97509348      -1.10232723      -0.96454048
H        0.01419050      -1.25380802      -1.00672925
H        0.11116467      -2.00746870      -1.61554158
H       -0.73280311      -2.32277727      -1.24627233
H       -1.01135397      -1.37653828      -1.10033166
H        1.20645249      -2.04097247      -1.08063924
H        0.80751777      -1.31842458      -1.69063878
H        0.74447179      -2.36546588      -1.05065393
H       -0.79029876      -0.46225467       1.80006409
