21
Properties=species:S:1:pos:R:3 pbc="F F F"
H        0.00000000       0.00000000       0.00000000
H       -0.81573808      -0.52769721      -0.06456009
H       -0.55569863       0.25064358       0.75923496
H        0.20882395       0.69681674       0.72399098
H        0.51050377       1.02916896       1.64695096
H        0.05871424       0.53412092       2.42421389
H        1.00137126       0.16826883       2.24850416
H        0.23526776       0.00000000       1.47703218
H       -0.46497270      -0.10175347       1.90510249
H       -0.84218198      -1.22451401       0.68848109
H        0.09108704      -0.54375541       0.82186347
H       -1.39795256      -0.47085333       0.95526850
H       -1.73927259      -0.84605980       0.68060875
H       -0.95105207       0.39399105       0.93564725
H       -0.04994053      -1.05364871       0.37161991
H       -0.63741034      -1.40073919       1.06621933
H       -0.32130185      -0.66280168      -0.76558411
H       -0.86818695       0.63219953       1.78257084
H       -0.84001482       0.51296109       1.17380691
H       -1.10554898       0.10299273       1.06137967
H       -0.28471291      -0.38506150       0.27636063
