21
Properties=species:S:1:pos:R:3 pbc="F F F"
H        0.00000000       0.00000000       0.00000000
H        0.19410905      -0.89379078       0.33394706
H       -0.60374576      -0.52595156      -0.64202011
H        0.41763824      -0.50813913      -0.54311907
H       -0.83845818      -0.19475858       0.55891043
H       -0.12037730      -1.58604455      -0.18588072
H       -0.37306538      -1.91839671      -1.12343860
H       -0.36224607      -1.16473603      -1.73983085
H        0.56571281      -2.00278997      -1.36763978
H       -1.23893368      -0.80947316      -0.15877283
H       -1.82797766      -0.35442752       0.33827341
H        0.60662079      -1.22614300      -0.54508650
H       -0.94329369      -0.73288172       0.48716134
H        0.01264405      -1.61994493      -2.02647710
H        0.22195272      -0.58340877      -1.38585079
H       -0.89518946      -0.91579860      -0.24720180
H       -0.27271634      -0.81678104      -0.45993990
H       -0.25516498      -1.28912294      -0.72672403
H        0.92245686      -1.22818780      -1.83751869
H        0.43938041      -1.14616096      -1.30144417
H        0.00702262      -1.92752039      -0.70706815
