21
Properties=species:S:1:pos:R:3 pbc="F F F"
H        0.00000000       0.00000000       0.00000000
H        0.52815789      -0.26419187       0.83939010
H       -0.64579159       0.70907992      -0.16798753
H        0.17939621       0.42593330       0.26439419
H       -0.52769929      -0.75165820       0.06986551
H       -1.09524000       1.60376000      -0.39352605
H       -1.97150469       1.25666952      -0.14908943
H       -1.86629093       1.02056921      -0.50941384
H        0.03386021      -1.43715239       0.47336203
H        0.13782710       0.01971030      -0.05418745
H        0.30366313      -1.42025340       1.40876651
H        0.17345634      -0.88137358       1.26056194
H        0.38250908      -1.53203475       0.12775925
H        0.08743908      -1.16771722       0.60650247
H       -1.52886605       0.26690853      -1.02536047
H       -2.74847031       0.58642358      -0.12863015
H       -2.46014881       0.55005515      -1.00083768
H       -0.62997568       1.50887764      -0.55013514
H       -3.54718256       0.03064477      -0.16369784
H       -2.02773046       1.22080636      -1.46066904
H        0.25067234      -1.09372330       1.78369331
