21
Properties=species:S:1:pos:R:3 pbc="F F F"
H        0.00000000       0.00000000       0.00000000
H        0.83968246      -0.37845421      -0.31585881
H        0.46931601      -0.91159266       0.04544405
H       -0.06234513      -0.83756196       0.58985323
H        1.23706567      -1.32055783      -0.40446484
H        1.55331039       0.25742018      -0.50149238
H        0.01738388      -0.49047148      -0.31636548
H        1.06362510      -0.04084462       0.21932954
H        1.32570839      -1.81062293      -0.44894680
H        0.33148754      -1.03741121      -0.18579377
H        0.96475005      -2.11009932      -0.27567542
H       -0.05399930      -2.16899371       0.21335635
H       -0.25232774      -1.17073941       0.34556073
H        0.09846276       0.32559499       0.68263787
H        1.18523622      -0.06910992      -0.41261306
H       -0.61178124      -2.22601604       0.55752665
H        0.15711856      -2.32793784       0.22266045
H       -1.00728273      -2.23469400       0.86330974
H        0.30678207      -0.47156975       0.40825397
H       -0.10497011       0.70112121       1.18305826
H       -0.46219862       1.00062501       1.47985280
