21
Properties=species:S:1:pos:R:3 pbc="F F F"
H        0.00000000       0.00000000       0.00000000
H        0.59380746      -0.49897972      -0.58861941
H       -0.28010327      -0.00393164      -0.37759510
H        1.40248966      -1.14521813      -0.89281702
H        1.49231541      -1.19863403      -1.91379797
H        1.31482184      -0.91560459      -1.88926864
H       -0.38887542      -0.68942583      -1.06047654
H        0.51297402      -1.03651631      -0.94107479
H        0.51751304      -0.98787761      -1.43824673
H        0.51816243      -0.52156872      -0.50080377
H       -1.14538407      -0.91297281      -0.69732857
H       -1.22582364      -1.10731411      -0.24371979
H       -1.09203684      -1.29208505       0.70286441
H       -1.14538407      -0.91297281      -0.69732857
H       -0.35790724      -1.04144144       0.11439830
H        0.52732110      -0.91705453       0.61860323
H        0.66666228      -1.09485734       0.14137761
H       -1.57301545      -0.87319815       0.11350173
H       -1.28040981      -1.47104394       0.21512362
H       -1.06753731      -0.82453030      -0.53576720
H       -0.03841150      -1.22054827      -1.00685453
