21
Properties=species:S:1:pos:R:3 pbc="F F F"
H        0.00000000       0.00000000       0.00000000
H        0.63883960       0.60990006      -0.40983751
H        0.55636489      -0.41172725      -0.46274784
H       -0.31151941       0.90665692      -0.17026387
H        0.79618812       0.83951360      -1.39768517
H       -0.65425098      -0.31530851      -0.64853460
H       -0.55706412      -0.11800810      -0.78981930
H       -0.07289040       0.78883696      -1.83379900
H        0.09879577       0.54106176      -2.08898425
H       -0.13063043       0.27376693      -0.54146230
H        0.23624745      -0.05971670      -0.30908138
H       -0.29104516       1.31222522       0.41278219
H       -0.16002704       1.43586326       0.93522793
H       -0.28927225       1.22757483       0.46326929
H        0.80340409       0.87329620       1.85728753
H        0.80340409       0.92397285       2.82965207
H        1.79204178       1.18816471       2.75140810
H        0.72016776      -0.13262683       2.04306817
H        1.14304495       1.42907500       1.13353693
H        1.37378752       0.13156503       1.29720783
H        0.94535762       1.03016376       2.05826044
