21
Properties=species:S:1:pos:R:3 pbc="F F F"
H        0.00000000       0.00000000       0.00000000
H       -0.27385142       0.28314662      -0.89044607
H       -0.33299938      -0.51146352      -0.33084166
H       -0.36143884      -0.92740691      -0.25020438
H       -0.16507921       0.96864080      -1.57332754
H        0.09153649       0.02999550      -1.53935254
H        0.16267329       1.31573129      -2.42195439
H        0.79153252      -0.34845871      -2.10045767
H        0.64044857       0.93727708      -1.66263628
H        0.59037763       0.83756196       0.05716649
H        1.46104217       0.06090325      -2.67686081
H        1.09693170       0.81456393      -2.17938709
H        0.93465209      -0.32800171      -1.63595474
H        0.73947406       1.87524891      -2.24765706
H        1.07239354       0.40607238      -0.73957765
H        0.57286566       0.99637270      -2.46710205
H        1.41303873       0.48292419      -1.10900819
H        0.19674200       1.33128405      -2.65225458
H        1.50067937       0.73707259      -0.85098618
H        1.01039433       0.20630287      -2.51631331
H        0.29806229       0.58691835       0.95147651
