21
Properties=species:S:1:pos:R:3 pbc="F F F"
H        0.00000000       0.00000000       0.00000000
H        0.05739931      -0.52769721       0.81627315
H        0.42804077       0.77136850      -0.52449560
H        0.04951880       1.00592303       0.19746035
H       -0.32244116       1.35301352       1.02766204
H       -0.29148915       0.74173117       1.12871766
H        0.48796412      -0.33235219       0.83949810
H       -0.19815484       0.48822188       0.16526371
H       -0.48917156       1.74207783       0.67237115
H       -0.50223184       0.35711741       2.11451030
H       -0.35173351       2.16983128       0.35059559
H       -0.14180899       0.43694884       1.27067375
H        0.21231325       0.11867201       0.00616819
H       -0.23640209       0.53190076       1.25014734
H        0.47412798       0.40210786       0.37849554
H        0.47106376       0.47589019       0.40367937
H        0.73215514       0.45817658      -0.76826859
H        0.49884725      -0.44990978       0.59474927
H        0.49764833       0.37768185       0.25738564
H        0.47095540       0.25813189       0.23005390
H        0.45587394       0.21205258       0.13654843
