21
Properties=species:S:1:pos:R:3 pbc="F F F"
H        0.00000000       0.00000000       0.00000000
H        0.05321160       0.83173102       0.50344110
H        0.20000809       0.91843063       0.25405282
H        0.03635526       0.82865471       0.25722513
H       -0.41998726      -0.30956718      -0.69421458
H       -0.52370453       0.17243987      -0.77735263
H       -0.26378107      -1.53592563      -0.65649527
H       -0.26068169      -1.53592563      -0.67312306
H       -0.19036216      -1.52183354      -0.78059143
H       -0.39126289      -1.54075921      -0.57967371
H       -0.27059692      -1.53592563      -0.63500607
H       -0.36937949       0.59026569      -0.55018449
H       -0.33052683      -0.95161819      -0.98510110
H       -0.98947853      -0.60692859      -1.15651190
H       -0.98947853      -0.60692859      -1.15651190
H       -0.98947853      -0.60692859      -1.15651190
H       -0.98947853      -0.60692859      -1.15651190
H       -0.98947853      -0.60692859      -1.15651190
H       -0.98947853      -0.60692859      -1.15651190
H       -0.98947853      -0.60692859      -1.15651190
H       -0.98947853      -0.60692859      -1.15651190
