21
Properties=species:S:1:pos:R:3 pbc="F F F"
H        0.00000000       0.00000000       0.00000000
H       -0.73394406      -0.63587439       0.07106813
H       -0.54940581      -0.48439360      -0.87289166
H        0.05907677      -0.97187352       0.00572043
H        0.66495228      -1.52765226      -0.51589793
H       -0.17074597       0.21242315      -0.22144169
H        0.22390184      -1.40964413      -1.37590337
H        0.50726116      -1.32068908      -0.39349896
H       -0.30709714      -0.01307189      -0.03996610
H       -0.32192567      -1.15636194      -1.75374997
H       -0.90848935      -1.07196867      -2.52633119
H       -0.76564932      -1.10568535      -2.61896801
H       -0.24777794      -1.06691849      -1.78198826
H        0.29781035      -1.11301780      -0.67664641
H        0.27166259      -1.06495452      -0.69669956
H       -0.20258081      -1.49575818      -1.93763685
H       -0.25053123      -1.79577076      -2.74550891
H       -0.21537346      -1.53965533      -2.80423594
H       -0.01716955      -1.57750118      -2.41409206
H        0.46116060      -0.83704066      -0.56436408
H        0.34466186      -1.20196354      -0.60284126
