21
Properties=species:S:1:pos:R:3 pbc="F F F"
H        0.00000000       0.00000000       0.00000000
H        0.44047090       0.80291802      -0.09821343
H        0.00000000       0.68549418       0.69149011
H        0.35039830      -0.84879911      -0.32376233
H        1.16661978       0.71396303      -0.81801808
H        0.75287664      -0.46354809      -0.52117538
H        0.74018657       0.33936992      -0.96344030
H        0.52815789      -0.26419187       0.83939010
H        1.30235744      -0.61128235       1.31709719
H        0.99082762      -0.58460724       0.43345425
H        1.86149120       0.56248224      -0.15298569
H        1.17319906       0.38424855       0.94794732
H        0.49923587      -0.15206778       0.37121320
H        1.61527109      -0.40559322       0.08266126
H        0.00459537      -1.18827391      -0.20056672
H        1.02030480      -0.83711350       0.97148669
H        1.26226544       0.03518617       0.30047768
H       -0.61078107       0.71973515       0.93356359
H        1.40719402       0.36814088      -0.07652964
H        0.74018657       0.33069205      -0.46351561
H       -1.01777411       0.43433520       0.98744804
