8
Properties=species:S:1:pos:R:3 pbc="F F F"
H        0.00000000       0.00000000       0.00000000
H       -0.01035373      -0.77460212      -0.58986890
H       -0.37518489      -0.21882331      -1.30125415
H       -0.17385310       0.00000000      -0.02301753
H       -0.42190152      -1.18805957      -1.22088242
H        0.06470984      -1.05055428      -1.05070066
H       -0.12496369      -0.13255113      -0.30794215
H       -0.64054221      -0.90265965      -0.87340128
