21
Properties=species:S:1:pos:R:3 pbc="F F F"
H        0.00000000       0.00000000       0.00000000
H        0.47219095      -0.55577880       0.64514065
H        0.23143964      -0.11600235       1.47982407
H        0.60837179      -0.66108263       0.37538579
H        0.22554043       1.29179239       1.14373684
H        0.92840981       0.65591800       1.36667001
H       -0.23378138       0.97182512       0.64611179
H        0.89166725       1.24111581       0.43538111
H        0.93123972       1.72328198       0.53617686
H        0.76834822       1.02760053       0.31374514
H       -0.65275681       0.86668801       2.06922340
H       -0.58106422       0.97182512       1.98116636
H       -1.03942442       0.16409284       0.16831893
H        0.71944970      -0.61586303       0.51694506
H       -0.73145509      -0.13538352       0.42418772
H       -1.09550595       0.19708723       0.21368819
H       -1.01482749       0.13207155       0.18290636
H        1.70255733       0.59702355       0.54344577
H        1.82894826       0.51877344       0.69533354
H        1.80506265       0.36462951       0.71313989
H        1.77963901       0.51877344       0.63381857
