21
Properties=species:S:1:pos:R:3 pbc="F F F"
H        0.00000000       0.00000000       0.00000000
H       -0.43620220       0.58582085      -0.72101700
H        0.20200232       0.30267423      -1.39968026
H       -0.51455986       0.01952761      -0.80434209
H        1.02661550      -0.16785710       0.28637719
H        1.13323808      -0.27722108      -1.67715526
H        0.19349891       0.05513111      -1.92160630
H       -0.43592700      -0.12881535      -2.07805109
H        0.19202203      -0.67613226      -1.58601689
H       -0.01816221      -1.40182972      -1.15783358
H       -0.62455708      -0.70907992      -0.23493625
H        0.06281266      -0.96046287      -0.14705954
H       -0.82207304      -1.31897998      -0.96778703
H        0.03330305      -0.08547830      -1.91088331
H        1.59918654       0.20351803      -0.63717437
H       -0.57607508      -1.02438843      -1.15487707
H        1.50090063       0.08245164      -0.55232739
H        1.50090063       0.08245164      -0.55232739
H        1.50090063       0.08245164      -0.55232739
H        1.50090063       0.08245164      -0.55232739
H        0.84333163      -0.97736186      -0.72892344
