21
Properties=species:S:1:pos:R:3 pbc="F F F"
H        0.00000000       0.00000000       0.00000000
H        0.50421435      -0.31530851      -0.77097952
H        0.99752355      -1.19582248      -0.38957620
H        0.48041564       0.18477097       0.82651162
H        0.06444538      -1.38059342      -0.59762830
H        0.39531460      -0.14758122      -0.14076489
H        1.51471114      -0.33747965       0.01028872
H        0.29954439      -1.26258528       0.33984888
H        0.65777248      -0.22774702      -0.41646516
H        0.75261515      -1.45958257       0.09221882
H       -0.42742193      -0.74215013       0.94383103
H       -0.49526146      -0.24297714       0.17275256
H        0.74714613       0.29663399       0.41866177
H        0.16740793      -0.72707802       0.31129223
H        1.05877066      -0.64704680       0.68143803
H       -0.68145823      -1.33664179       1.06577647
H       -0.86411887      -1.85791326       1.08346355
H        0.32620645      -2.02264452      -0.75286770
H        0.83518881      -0.74684161       0.57485324
H        1.99625134      -0.32880178       0.14461568
H        1.99891293      -0.29414260       0.12720963
