21
Properties=species:S:1:pos:R:3 pbc="F F F"
H        0.00000000       0.00000000       0.00000000
H        0.14728610      -1.02954066      -0.28719354
H        0.23278411       0.77136850       0.63570917
H       -0.23469026      -0.10213375      -0.06962900
H        1.09836769       0.75629640       0.56720412
H        1.10023868       0.78644061       0.59762335
H        0.92613059       0.68525451       0.50647056
H        0.62111682      -1.86127162      -0.46543187
H        0.14423102      -2.69300270      -0.29553676
H        1.04049265      -3.07145691      -0.33488733
H        0.20990121      -2.38896894       0.24202722
H        0.05911195      -2.44512415       1.30890894
H        0.71690810      -1.80225658       0.85355258
H        0.91214406      -2.10338140      -0.01916522
H        0.26658246      -1.97546315       2.13621497
H        0.58569264      -1.22180247       1.60874438
H        0.23037779      -2.77319217      -0.01381108
H        0.82567155      -1.89106989       1.34352446
H       -0.09276325      -1.17112589       2.30530071
H        0.02097733      -2.06580591       1.81546950
H       -0.14118616      -1.36546731       2.76343465
