21
Properties=species:S:1:pos:R:3 pbc="F F F"
H        0.00000000       0.00000000       0.00000000
H        0.68725604      -0.43977645       0.53135377
H        0.64687997       0.51456094       0.72022128
H        1.29563797       0.14341435       0.04368496
H        0.75014973       1.10038185      -0.11612386
H        1.08912563       0.84973824      -0.99381059
H       -0.16041857       0.84973824      -0.35298681
H        0.95048571       1.10038185      -0.06588387
H        2.13476110      -0.08013263       0.03632113
H        1.48245907      -0.55078149      -0.29101172
H       -0.46463042       0.53402436       0.06151542
H        0.99722123      -1.26370370       0.03244451
H       -0.54907435       0.44506219       0.07269549
H       -0.34651548       0.61939394       0.03355324
H       -0.38988796       0.59375244      -0.01711814
H        0.03182177      -0.70053869       0.30106947
H        0.03182177      -0.70053869       0.30106947
H        0.03182177      -0.70053869       0.30106947
H        0.02123632      -0.70053869       0.30200079
H        1.44622111       0.23336232      -0.32246926
H        1.44622111       0.23336232      -0.32246926
