21
Properties=species:S:1:pos:R:3 pbc="F F F"
H        0.00000000       0.00000000       0.00000000
H       -0.29363519      -0.58319080       0.72230726
H        0.03446137       0.29845181       0.98135763
H       -0.73778123       0.01689900      -0.63518047
H       -1.14573836      -1.05285180       0.68489546
H       -1.14821756       0.89358836      -0.29417950
H       -1.34406447      -0.61897540      -1.05487728
H       -1.66061556       0.03594595      -0.52917260
H       -0.66927975       0.79743153       0.52988374
H       -1.14821756       0.23250574       0.42068464
H       -2.06601548      -0.72049963       0.37512791
H       -1.09213102      -0.07353264       0.98719364
H       -0.25609553       1.01159644      -0.66600364
H       -1.33264196      -0.27622572       0.03879228
H       -1.25211918      -0.07426125       0.66508639
H       -1.74889970      -0.73922557      -0.65599489
H       -0.20316419       1.54434109      -0.80305505
H        0.29715809       0.83563477      -0.84265214
H       -0.75264096      -1.51969850      -0.44767517
H       -2.23729444      -0.67716259       0.84287298
H        0.83063853       0.17455214      -0.36680627
