21
Properties=species:S:1:pos:R:3 pbc="F F F"
H        0.00000000       0.00000000       0.00000000
H        0.12529835      -0.08895500      -1.01474690
H        0.30957812       0.74860698      -0.45096087
H       -0.05344114       0.19419162      -1.92904496
H        0.06157412       0.80890620      -1.11527514
H        0.16665195       1.70906985      -0.52268291
H        0.19171882      -0.80291802      -0.40853932
H        0.83799124       0.56004369      -1.57573986
H        0.51697248       0.87150788      -0.04405019
H        0.48691976       0.91190511      -0.39574984
H        0.68838513      -0.17756963      -0.86745095
H       -0.16045426       1.64847112      -0.89595127
H        0.61150587       0.62064242      -2.01736426
H       -0.21594630       1.08782744      -0.92998600
H       -0.57909364       0.82615769      -1.03778088
H        0.06272441       0.15542305      -0.88715202
H        1.29260015       0.43381709      -0.74381632
H        0.79771960       0.39048004      -0.80051869
H        0.74916226       0.12691635       0.29691857
H        0.71380311      -0.12691635       0.37401840
H        0.25702834       0.01168007      -1.13336182
