21
Properties=species:S:1:pos:R:3 pbc="F F F"
H        0.00000000       0.00000000       0.00000000
H       -0.72715116       0.63587439       0.12237607
H       -0.65819144      -0.15873575      -0.43610412
H        1.01926625       0.08895500      -0.08066799
H       -0.34970811      -1.06539273      -0.26039937
H       -0.38248879       1.48467350       0.45223796
H        0.52849668       1.16936493       0.31531832
H        0.02482244      -0.27099371      -0.79141808
H       -0.11706801      -0.06713843      -0.31227198
H       -0.08606881       1.92302561       0.26667967
H        1.40783381       0.76000297       0.40046486
H       -0.94881332      -1.73571074      -1.10982561
H       -1.45737219      -1.01316285      -0.58769900
H       -1.24048412      -0.64731073      -1.52174163
H       -1.61945701      -1.28209352      -1.82298458
H       -1.70993876       0.14708829      -1.07244623
H        1.37035513       0.03006053       0.99345446
H        1.28986728       0.27268314      -0.55490446
H       -2.19061756      -0.93859923      -0.98056853
H       -2.27964258      -0.01258065      -0.23383600
H       -1.63362730      -1.49482059      -0.32200676
