21
Properties=species:S:1:pos:R:3 pbc="F F F"
H        0.00000000       0.00000000       0.00000000
H        0.69739223       0.29845181      -0.69129914
H       -0.08132565       0.66430390      -0.13176835
H        1.20008135      -0.59622824      -0.67806214
H       -0.19319980      -0.81647241       0.59107578
H        0.43270528      -0.29052085      -0.02936089
H       -0.36165199      -0.21554375       0.17701331
H        0.72288179      -0.50134587      -0.56283218
H       -0.31316787      -0.36285514      -0.38050354
H        0.43702757      -1.10776091      -0.30247629
H        1.13139558      -1.24259377      -0.23524037
H        0.40693182      -1.52109003       0.03656387
H        0.44858670      -0.72215861       0.41824755
H        0.95676297       0.74944681      -0.50493383
H        0.82199496       0.48526940       0.25504011
H        1.63803482       1.10725296       1.03603780
H        2.40313578       1.60230100       1.50813079
H        0.51470453       0.18231559      -0.01800308
H        0.97213387       0.99062407      -0.06721562
H        0.68207967       0.92248201       1.02764893
H        1.08531570       1.55152690       0.44827926
