21
Properties=species:S:1:pos:R:3 pbc="F F F"
H        0.00000000       0.00000000       0.00000000
H       -0.04850490       0.68549418       0.68978679
H       -0.20576580       0.34709048      -0.88614309
H       -0.23669477       0.87304205      -0.00538081
H        0.37724859       0.54068983      -0.75767040
H        0.35720447      -0.74181414       0.27617356
H        1.28184080       0.75852835      -0.47075561
H       -0.15018171      -0.25315112       0.45173693
H        0.86203200       0.80988109       0.23286849
H        0.32044983       0.17400670      -0.26754469
H        0.08297651      -0.06751907      -0.42642993
H        0.99645817       0.36075971      -0.36908531
H       -0.47452456       0.15146983       0.49440801
H       -0.09490034       0.21142757      -0.22219457
H       -0.55931270       0.40932488       0.28033155
H       -0.64183903       0.43221197       0.39204475
H       -0.40958464       0.30041787       0.21419740
H       -0.03878459       0.24043199       0.13600636
H       -0.09963544       0.27992585       0.10862619
H        0.55033565       0.73461145      -0.57418478
H        0.31303728       0.82495320      -0.43983698
