21
Properties=species:S:1:pos:R:3 pbc="F F F"
H        0.00000000       0.00000000       0.00000000
H       -0.61304885      -0.15966894      -0.80746567
H       -0.37439206       0.46354809       0.83563006
H       -0.57703638      -0.14185648       0.21806335
H       -1.09787393       1.07344818       1.06510091
H       -0.96432912       1.23815024       0.83045310
H       -1.60223913       0.06994461      -0.95613945
H       -1.58484769       0.09953213      -0.08222824
H       -0.51225293       0.67024595      -0.58454359
H       -1.43130612       0.36802828      -0.81464624
H       -1.73124647       0.08628697      -0.83109528
H       -1.70181131       0.66648877      -0.33108896
H       -1.60092521       0.82302141      -0.41593644
H       -0.86207050       1.18806434      -0.34219316
H       -1.06092060       1.14821267      -0.37882632
H       -1.05980051       0.37435544      -0.66576689
H       -0.65200508      -0.39808929       0.64082146
H       -0.56850845       1.44286728       0.59777135
H        0.06493825       0.57541108       1.04652238
H       -0.65040714      -0.41283613       0.63181055
H       -1.86686826       0.35281435      -0.68319422
