21
Properties=species:S:1:pos:R:3 pbc="F F F"
H        0.00000000       0.00000000       0.00000000
H       -0.12270200      -0.91159266      -0.45526573
H       -0.55729049       0.26419187       0.82033759
H        0.43828541      -0.47181621       0.20802215
H        0.08545351      -0.44488806       0.99963284
H       -0.16809496      -1.08076239       1.69204736
H       -0.38013530      -1.15396798       1.47764301
H       -1.09053981      -0.86091602      -0.36154956
H       -0.92295307      -0.39891118      -0.20579445
H       -0.55061746      -1.02058494       0.49653757
H       -0.29387397      -1.14206219       0.46886092
H       -0.27375311       0.65325618       1.09169936
H        0.12048662       1.01415789       1.23215115
H        1.06967735       0.40088820       1.29053128
H        0.51473635       0.77934241       1.99542403
H       -0.63421750      -0.03760511       0.70838338
H        1.08741188       0.19615161       1.46628118
H        0.09197706       1.05551171       2.49527669
H        0.99593306       1.10618830       2.85354519
H        0.15304804       1.19058156       3.33363223
H        0.92789948       1.10162652       2.66653681
