21
Properties=species:S:1:pos:R:3 pbc="F F F"
H        0.00000000       0.00000000       0.00000000
H        0.97460508       0.08895500       0.30912116
H       -0.26607454       0.08895500      -0.98722601
H        0.56098741       0.43977645       0.66328788
H       -0.71229339      -0.30995619      -0.15350986
H        0.90624416       0.39891118      -0.27002844
H        1.80886114      -0.01629546       0.09210899
H        1.22625875       0.69662678       0.06652968
H       -0.85990149      -0.32040697      -0.33312106
H        0.88667399       0.53662801       0.18140477
H        0.46120811       0.64758992      -1.81714487
H       -0.52364498       0.73654491      -1.54241717
H       -0.85563695       0.65875745      -1.17672539
H        1.73419774      -1.24748743       0.00062087
H        0.39011878       0.82093811      -1.21687984
H        1.59704268      -1.90857005      -0.70096242
H        0.08431339       1.40462685      -1.61965966
H        1.20004988      -0.66429663      -0.56738913
H        1.35869884      -0.91031575      -0.70305401
H        0.29764116       1.09143496      -1.94585299
H        0.96737564      -0.90994716      -0.22786458
