8
Properties=species:S:1:pos:R:3 pbc="F F F"
H        0.00000000       0.00000000       0.00000000
H        0.75986940       0.40936196      -0.45064643
H        0.16672003       0.77521408       0.30277905
H        0.87339365       0.13933969       0.09221554
H        0.87276161       0.72467047      -1.36492038
H        0.40050000       0.30125487       0.10466790
H        0.58493644       0.61280745      -0.97167325
H        1.20385957       0.53307223      -1.18000424
