21
Properties=species:S:1:pos:R:3 pbc="F F F"
H        0.00000000       0.00000000       0.00000000
H        0.42017129      -0.49897972       0.72286665
H        0.64880055      -0.77136850      -0.19331941
H        0.99476713      -1.55814099       0.13779071
H        0.04577923      -0.03543162       1.55849671
H        0.03533965      -1.03556037       0.58590603
H        0.15754801      -0.97232014       0.04186390
H        0.96707523      -0.86727971      -0.38766041
H        0.19517733      -0.17604525       1.10062921
H        1.16720617      -1.66534317       1.35785246
H        1.12318897      -1.75056255       1.35280514
H        0.03956262      -0.09807859       1.12662601
H       -0.23624298      -0.05889447       1.10507536
H       -0.77993232      -0.17604525       0.80073988
H       -0.99528402      -0.36643961       0.39446512
H       -1.00776494      -0.40337542       0.31963861
H       -1.00776494      -0.40337542       0.31963861
H       -1.00776494      -0.40337542       0.31963861
H       -1.00776494      -0.40337542       0.31963861
H       -1.00776494      -0.40337542       0.31963861
H       -1.02050245      -0.36643961       0.32367858
