17
Properties=species:S:1:pos:R:3 pbc="F F F"
H        0.00000000       0.00000000       0.00000000
H        0.80713278      -0.08439321       0.53802919
H        0.82417399      -0.41674539      -0.43283409
H       -0.32515267       0.39891118       0.88795811
H        0.06754673      -0.23696321       1.51206684
H        0.05183762      -0.38284501       1.16554773
H       -0.18616359      -0.33678377       0.74015784
H        0.65334654       0.25543848       0.08979571
H        0.65323991       0.03687188       0.53108507
H       -0.19549312      -0.15401226       1.80534101
H       -0.11279789      -0.36069047       1.62419033
H        0.50572979      -0.68772507      -0.70699334
H        0.20024318      -0.52580988      -0.34579891
H       -0.32918340      -0.94517803       0.49560779
H        0.27878720      -0.49978673      -0.83890504
H       -0.08323200      -0.16633898       1.24406803
H       -0.11154191      -1.02296543       0.93898267
