21
Properties=species:S:1:pos:R:3 pbc="F F F"
H        0.00000000       0.00000000       0.00000000
H       -0.06381270       0.34709048       0.90747839
H        0.48028508       0.01876166       0.24077338
H        0.62476265       1.00817311       1.09955835
H       -0.14988023       1.59136391       1.01080143
H        0.44390482       1.29291213       0.22870839
H       -0.38290972       0.61707699       0.07459174
H        0.37383941       0.29465783       0.00088604
H       -0.17593509       1.41982841       0.74368715
H        0.02827454       1.35089874       0.92182630
H        0.57010001       1.52826774       0.36172187
H        0.86346972       1.17324817       0.16418427
H        0.74124193       1.29230917       0.16362095
H        0.27779418       1.32909107       0.56901890
H        0.22264087       1.37229347       0.64068794
H        0.26602852       1.35089874       0.59093618
H        0.44180301       1.35089874       0.50465292
H        0.33308476       1.19107521       0.47801316
H        0.26365826       1.14300597       0.50267369
H        0.41618195       1.04515338       0.42134434
H        0.25703079       0.99584138       0.49171889
