21
Properties=species:S:1:pos:R:3 pbc="F F F"
H        0.00000000       0.00000000       0.00000000
H        0.35866648      -0.83756196      -0.47241095
H        1.17612004      -1.39378333      -0.74756777
H       -0.60837173      -0.66108263       0.37538588
H       -0.08479476       0.02728242      -0.41369826
H       -1.10248327      -1.49281359       0.26521194
H        0.46919590      -2.05486584      -0.85381740
H       -0.51055408      -1.47755504      -0.23872197
H       -1.44530952      -1.22691143      -0.34582427
H        0.00756595      -1.73135281      -0.63343072
H        0.83735782      -1.35499859      -0.56163818
H       -0.29008353      -0.25172067      -0.44873565
H       -0.71291137      -2.04859233      -0.43293172
H       -1.07378197      -0.36926901      -0.76978278
H       -0.63789475       0.26056522      -0.18481135
H       -1.68097067      -0.41325063       0.13426003
H        0.95267040      -1.59777033      -0.48001787
H       -1.14687777      -0.88941216      -0.07821703
H       -0.45366067      -3.01519871       0.09520859
H       -0.25481027      -3.84692979      -0.37034801
H        0.02322510      -3.84692979       0.26510382
