8
Properties=species:S:1:pos:R:3 pbc="F F F"
H        0.00000000       0.00000000       0.00000000
H       -0.51304650      -0.77136850      -0.44169885
H       -0.08971080      -1.14982271       0.34926271
H       -0.81887841      -0.36408556       0.47197813
H        0.61780733      -0.81647241      -0.07078695
H        0.31682640      -0.35521257       0.73834240
H        0.43849492      -0.58659756      -0.34956074
H        0.05788124      -0.31614819       0.75006509
