6
Properties=species:S:1:pos:R:3 pbc="F F F"
H        0.00000000       0.00000000       0.00000000
H       -0.58002573       0.67024595       0.51736289
H        0.35791260       0.92088950       0.44313145
H       -0.63064498       0.51876515      -0.44313288
H        0.18880002       0.73181123      -0.61389565
H       -0.43475288       1.40205717      -0.10826409
