6
Properties=species:S:1:pos:R:3 pbc="F F F"
H        0.00000000       0.00000000       0.00000000
H        0.45934626      -0.55622131       0.73002923
H        0.88958764       0.33235219       0.38922983
H        0.52340019       0.28167555       1.29000711
H       -0.39757395       0.05067664       0.88737136
H        0.08256221       0.77460212       0.58415413
