6
Properties=species:S:1:pos:R:3 pbc="F F F"
H        0.00000000       0.00000000       0.00000000
H        0.07742673      -0.40936196      -0.88005048
H        0.45146576       0.55292344      -0.80906224
H       -0.40415707       0.77460212      -0.42977855
H       -0.35317799       0.36815247      -1.32526863
H       -0.78973198      -0.07162398      -0.57421726
