21
Properties=species:S:1:pos:R:3 pbc="F F F"
H        0.00000000       0.00000000       0.00000000
H       -0.96783787       0.05067664       0.09371616
H       -0.32004833      -0.90665692       0.15363328
H       -1.27847457      -0.60820508      -0.06007077
H       -0.63197857      -0.36585209      -0.72116518
H       -0.68009901      -0.20203936       0.88712150
H       -0.56157172       0.49477738       0.14299679
H       -1.28101349      -0.47977954       0.03513002
H        0.42967439      -0.71236855       0.54647285
H        0.37084937      -1.42680001       0.07447179
H        0.27682269      -1.51804364      -0.00162874
H        0.48423868      -0.83138728       0.47239971
H       -1.22631943      -1.15730047       0.40644026
H        0.24637032      -1.51655698       0.65885878
H       -0.46383113      -1.89061093      -0.58185250
H       -0.15355210      -0.57862896      -0.32701224
H       -0.24370706      -0.77562630       0.18138307
H       -0.34530634      -0.79342735       0.14468011
H        0.57252741      -1.65819693      -0.82963747
H        0.57252741      -1.65819693      -0.82963747
H        0.57252741      -1.65819693      -0.82963747
