6
Properties=species:S:1:pos:R:3 pbc="F F F"
H        0.00000000       0.00000000       0.00000000
H        0.63772744       0.77136850       0.22719663
H       -0.34870055       0.85764241       0.44292367
H        0.46098104       0.45605999      -0.67690635
H       -0.56818217       0.64286757      -0.56321782
H        0.17210788       1.32090437      -0.33535495
