6
Properties=species:S:1:pos:R:3 pbc="F F F"
H        0.00000000       0.00000000       0.00000000
H        0.36038706      -0.22961354      -0.93312520
H       -0.35566401      -0.79439902      -0.54383558
H        0.16280574      -0.81129801       0.28015739
H        0.79703540      -0.17542362      -0.09597743
H        0.48947933      -1.05211306      -0.53203809
