6
Properties=species:S:1:pos:R:3 pbc="F F F"
H        0.00000000       0.00000000       0.00000000
H        0.19410905      -0.89379078       0.33394706
H       -0.82215673      -0.55622131       0.26076818
H       -0.33793145      -0.53840888       1.16549611
H       -0.50107276       0.25064358       0.79634464
H        0.36530429      -0.08439321       0.89860529
