6
Properties=species:S:1:pos:R:3 pbc="F F F"
H        0.00000000       0.00000000       0.00000000
H        0.38154608      -0.49897972      -0.74397767
H       -0.09713998      -1.02162731       0.01286099
H        0.46486667      -0.52264762       0.63191563
H        1.00158334      -0.09115803      -0.12905473
H        0.85443860      -1.07842636      -0.06622803
