8
Properties=species:S:1:pos:R:3 pbc="F F F"
H        0.00000000       0.00000000       0.00000000
H       -0.30820453      -0.91843063       0.09775501
H        0.54693574      -0.79439902      -0.35087800
H       -0.03155094      -0.49504808       0.89847416
H        0.84801614      -0.23862022       0.38974422
H        0.51759285      -1.29337871       0.48471707
H        0.41452122      -1.16602707       0.46269935
H        0.13349560       0.08544862      -0.29613999
