6
Properties=species:S:1:pos:R:3 pbc="F F F"
H        0.00000000       0.00000000       0.00000000
H       -0.33100656      -0.58582085      -0.77496612
H        0.24298397       0.23065156      -1.01419747
H        0.86890960      -0.20083803      -0.32473558
H        0.54646599      -0.81073809      -1.01184034
H        0.34650609      -0.91817307      -0.07937819
