6
Properties=species:S:1:pos:R:3 pbc="F F F"
H        0.00000000       0.00000000       0.00000000
H        0.59380746      -0.49897972      -0.58861941
H       -0.09793752       0.11573485      -1.03239739
H       -0.79591238      -0.39891118      -0.51060492
H       -0.14265269      -0.90589249      -1.11958766
H       -0.13629377      -0.99402779      -0.06402099
