6
Properties=species:S:1:pos:R:3 pbc="F F F"
H        0.00000000       0.00000000       0.00000000
H        0.02715597      -1.02162731       0.09414954
H        0.47163600      -0.52769721      -0.66869730
H       -0.85664946      -0.52657926      -0.07059010
H       -0.39063883      -0.11833525      -0.86096209
H       -0.33756411      -1.05539441      -0.79031885
