6
Properties=species:S:1:pos:R:3 pbc="F F F"
H        0.00000000       0.00000000       0.00000000
H        0.13252793       0.60990006       0.74734145
H       -0.27275261       0.98938280       0.00718220
H        0.51452088       0.69093096      -0.57971710
H        0.91154218       0.35857877       0.30642068
H        0.64872342       1.30671680       0.19842201
