6
Properties=species:S:1:pos:R:3 pbc="F F F"
H        0.00000000       0.00000000       0.00000000
H        0.42017129      -0.49897972       0.72286665
H        0.33900332      -0.86484438      -0.29185924
H       -0.20066434      -1.25207865       0.34622094
H       -0.55850232      -0.39891118       0.76306552
H       -0.67009628      -0.70517546      -0.19414768
