6
Properties=species:S:1:pos:R:3 pbc="F F F"
H        0.00000000       0.00000000       0.00000000
H        0.12256700       0.83228827       0.37498182
H       -0.26910308       0.33235219       0.93297887
H       -0.99323934       0.15966894       0.20323697
H       -0.76633239       1.10372066       0.47354701
H       -0.45279217       0.75366068      -0.41837269
