21
Properties=species:S:1:pos:R:3 pbc="F F F"
H        0.00000000       0.00000000       0.00000000
H       -0.02481474      -0.91159266      -0.47085762
H        0.79256541      -0.55577880       0.10493290
H       -0.56530309      -0.76011187       0.32474703
H        0.12906848      -1.43754423       0.39690900
H        0.13468677      -0.43139189       0.88278079
H        0.30314195      -0.60581321       0.87228549
H        0.68125331      -0.66294211       0.18919660
H       -0.86198616       0.10525046      -0.00756431
H       -0.85702157       0.13510449      -0.03762778
H       -0.32697392       1.26032221      -0.49996641
H       -0.35071644       1.23883116      -0.53627044
H       -0.40514120       1.23883116      -0.49643597
H       -0.38746962       1.23883116      -0.51034826
H       -0.43896607       1.23883116      -0.46679422
H       -0.38746962       1.23883116      -0.51034826
H       -0.35373476       1.21584725      -0.58470309
H       -0.35373476       1.21584725      -0.58470309
H       -0.37403673       1.21584725      -0.57192880
H       -0.35071644       1.23883116      -0.53627044
H       -0.41323373       1.21584725      -0.54428297
