6
Properties=species:S:1:pos:R:3 pbc="F F F"
H        0.00000000       0.00000000       0.00000000
H        0.87747955       0.49504808      -0.19565487
H        0.80280322      -0.38164130       0.33270395
H        0.35953674      -0.83173102      -0.35639551
H        1.24681830      -0.39963201      -0.53691781
H        0.44498718      -0.02117780      -0.93928611
