7
Properties=species:S:1:pos:R:3 pbc="F F F"
H        0.00000000       0.00000000       0.00000000
H        0.30968034       0.89379078      -0.23086154
H       -0.54735780       0.52793872      -0.66093338
H        0.81645089       0.08439321      -0.52378118
H        0.07972901      -0.34709048      -0.90621871
H        0.39732051       0.54670030      -1.12607002
H       -0.60884625       0.31399214      -0.71413857
