7
Properties=species:S:1:pos:R:3 pbc="F F F"
H        0.00000000       0.00000000       0.00000000
H       -0.37664786      -0.36585209      -0.88182342
H       -0.41025761       0.49504808      -0.79996246
H        0.15696862       0.11659387      -1.49500763
H        0.56779379       0.55577880      -0.56283307
H        0.66699183      -0.45014423      -0.74060380
H        0.68456769       0.58625489      -0.82484460
