6
Properties=species:S:1:pos:R:3 pbc="F F F"
H        0.00000000       0.00000000       0.00000000
H       -0.07115869       0.77136850       0.67323917
H        0.43216300       0.72069186      -0.15872240
H        0.94723839       0.89575541       0.70005596
H        1.02456951       0.05341591       0.02697931
H        0.53886986      -0.06459219       0.86258143
