21
Properties=species:S:1:pos:R:3 pbc="F F F"
H        0.00000000       0.00000000       0.00000000
H       -0.04850490       0.68549418       0.68978679
H       -0.58225608       0.40936196      -0.66442579
H       -0.60601467       1.18073046       0.01214653
H       -0.87635672       0.22506517       0.27087966
H        0.33142260       0.89468008      -0.37819383
H        0.09632356       0.77667201       0.55928338
H        0.46621805      -1.41487968      -0.17537475
H        0.58079100      -1.37692094      -0.12950112
H       -1.45213175       2.40485954      -0.17651552
H        0.53932726      -1.39674175       0.09076611
H       -1.51483667       2.37403631       0.00417121
H       -1.46928310       2.34177542      -0.38376081
H       -1.38515568       2.46204567      -0.02206188
H       -1.33867788       2.48833990      -0.04583874
H       -1.24846923       2.53617144       0.00650871
H        0.61572742      -1.35544097      -0.18346480
H        0.70435178      -1.30760944      -0.20987171
H        0.68147743      -1.33232784      -0.10242496
H        0.47040752      -1.39674175      -0.27897882
H        0.59503061      -1.37692094      -0.00522176
