6
Properties=species:S:1:pos:R:3 pbc="F F F"
H        0.00000000       0.00000000       0.00000000
H        0.35866648      -0.83756196      -0.47241095
H       -0.53192729      -0.89097786       0.03484979
H       -0.03048696      -0.43977645       0.86817515
H        0.82130915      -0.39778551       0.26285723
H        0.39491209      -1.26262987       0.39810002
