6
Properties=species:S:1:pos:R:3 pbc="F F F"
H        0.00000000       0.00000000       0.00000000
H       -0.02074104      -0.97334045      -0.01546210
H       -0.51896304      -1.06229544      -0.90831470
H       -0.88193482      -0.37845421      -0.16439095
H        0.34570307      -0.62251902      -0.82458878
H       -0.41358426       0.01689900      -0.88131911
