6
Properties=species:S:1:pos:R:3 pbc="F F F"
H        0.00000000       0.00000000       0.00000000
H       -0.67230010      -0.60990006       0.35227177
H       -0.80134869       0.40771645       0.31870279
H        0.19049197      -0.45023113       0.88464344
H        0.07959515       0.56738538       0.82046735
H       -0.70094031      -0.08437905       1.23794866
