6
Properties=species:S:1:pos:R:3 pbc="F F F"
H        0.00000000       0.00000000       0.00000000
H        0.17388797      -0.66108263       0.69339287
H        0.13944708      -0.90665692      -0.32647914
H       -0.77784079      -0.58582085      -0.32419348
H       -0.77784079      -0.37975740       0.57351232
H       -0.58291608      -1.33322930       0.35160887
