6
Properties=species:S:1:pos:R:3 pbc="F F F"
H        0.00000000       0.00000000       0.00000000
H       -0.49101692      -0.19475858      -0.87994057
H        0.19268495       0.55264992      -0.71484607
H       -0.96179169       0.15148079      -0.00844015
H       -0.25328708       0.87402868       0.16264346
H       -0.78250808       0.72367203      -0.74001563
