6
Properties=species:S:1:pos:R:3 pbc="F F F"
H        0.00000000       0.00000000       0.00000000
H       -0.93989587      -0.24138860      -0.47165081
H       -0.77871788       0.36585209       0.55953079
H       -1.39021945       0.07259086       0.08550543
H       -0.60621583       0.62881219      -0.27404988
H       -0.79960752      -0.63240218       0.32209489
