6
Properties=species:S:1:pos:R:3 pbc="F F F"
H        0.00000000       0.00000000       0.00000000
H        0.87909138       0.39891118       0.34841394
H        0.72244596       0.02045697       1.23175740
H        0.64294529      -0.58040798       0.54461014
H       -0.16266596      -0.28314662       0.91729414
H        0.05608509       0.70623618       0.75421888
