6
Properties=species:S:1:pos:R:3 pbc="F F F"
H        0.00000000       0.00000000       0.00000000
H        0.75986940       0.40936196      -0.45064643
H        0.46195489       0.77521408       0.46079364
H        0.51601064      -0.11857671       0.84325528
H        0.85960490      -0.43943715       0.01588744
H        1.31695402       0.31291288       0.36824962
