21
Properties=species:S:1:pos:R:3 pbc="F F F"
H        0.00000000       0.00000000       0.00000000
H        0.54069358       0.79439902       0.36042264
H       -0.46758074       0.88335401       0.53011036
H       -0.41634524       0.86645502      -0.44207805
H        0.41494092       0.77658659      -0.65800405
H        0.09450963       1.56576753      -0.14872810
H       -0.17276868       0.35565680      -0.23322606
H       -0.91593492       0.08043599       0.47873887
H       -1.10271955       0.09733499      -0.47671226
H       -0.41281170      -0.51256508      -0.79311395
H       -0.53321147       0.23909312      -1.31162298
H       -0.98245496       0.69033605      -0.27734181
H       -1.45254755       0.32348633      -1.62107372
H       -1.49393058       1.09808850      -1.03256726
H       -1.41986752      -0.10800326      -0.69044346
H       -1.46406221       0.39057392      -1.55376196
H       -0.11414859       0.49532595      -1.40506303
H       -0.30330998      -0.17026883      -2.16463470
H       -1.20225239      -0.18304390      -2.19283748
H       -0.10148448       0.46492428      -1.42392659
H        0.00461626       0.57663333      -0.71920168
