6
Properties=species:S:1:pos:R:3 pbc="F F F"
H        0.00000000       0.00000000       0.00000000
H       -0.32983679       0.96807545      -0.08579928
H        0.89548022       0.31530851       0.21623290
H        0.47035632       0.59845513      -0.61271739
H        0.07102945       0.62098497       0.73083729
H        0.55480027       1.26385260       0.09364742
