6
Properties=species:S:1:pos:R:3 pbc="F F F"
H        0.00000000       0.00000000       0.00000000
H       -0.29363519      -0.58319080       0.72230726
H        0.00000000       0.19475858       1.00766706
H        0.86232990       0.01689900       0.45184341
H        0.50512624      -0.80102932       0.20987445
H        0.52629423      -0.59781557       1.20186341
