21
Properties=species:S:1:pos:R:3 pbc="F F F"
H        0.00000000       0.00000000       0.00000000
H       -0.92830116      -0.43148959      -0.07346868
H        0.55375272      -0.58319080      -0.54891467
H        0.07984662      -1.29227066      -1.01868010
H       -0.01969359       0.95566529      -0.37368414
H        0.16455254      -1.17426252      -1.98146772
H        0.76626348      -0.42060184      -2.11563349
H       -1.50143266       0.22959304      -0.50072855
H        0.62911832       0.97347772      -1.16869962
H       -1.76514840      -0.14886117      -1.35821748
H       -0.94595647       1.07367337      -0.64967716
H        1.62792349      -0.71905363      -2.58658171
H        1.05247259      -0.10529333      -1.24000466
H        0.60439932      -2.03190494      -2.33404160
H       -0.87048244      -1.20787740      -0.82422346
H        2.40772200      -0.55938470      -1.93870521
H       -1.28855979      -1.04354119      -1.51863837
H       -0.92998886       1.21696603      -1.55937493
H        0.70737815       0.80136359      -1.15667427
H        0.03904110       1.12801099      -1.88555264
H        0.72619188      -2.63340759      -1.64723825
