20
Properties=species:S:1:pos:R:3 pbc="F F F"
H        0.00000000       0.00000000       0.00000000
H       -0.04850490       0.68549418       0.68978679
H       -0.79756612      -0.08439321      -0.55211145
H       -1.37418962       0.63815469      -0.10629338
H       -2.19782877       0.14310661       0.25408128
H        0.11718936      -0.96807545       0.32003197
H       -2.19782877       0.22749981       1.22410131
H        0.04412933       0.15954262       1.56621003
H       -0.99321306       1.08440542       0.64830911
H        0.19483307      -0.83871168       1.38154662
H       -2.03461576      -0.86281645       0.13240869
H       -1.94330537      -1.30259287       0.99630684
H       -1.07210684      -1.71195483       1.14292526
H       -0.55893028      -1.33769143       1.74337673
H       -1.49589527       0.85479188       1.51312828
H       -1.99011230      -0.59351295       1.66194618
H       -0.63585448      -1.52718389       0.29227579
H       -1.13742542      -0.95177144      -0.35795903
H       -0.89184898       0.35581216       2.09123564
H       -1.19012332      -0.66744548       2.19690681
