21
Properties=species:S:1:pos:R:3 pbc="F F F"
H        0.00000000       0.00000000       0.00000000
H        0.80713278      -0.08439321       0.53802919
H        1.46078146      -0.64061451      -0.02471870
H       -0.72463602      -0.33235219       0.64635020
H       -1.04897106      -1.12696230       0.18649986
H        0.64453697      -0.51588279       1.45492792
H        1.12115335      -1.36468196       1.43400192
H       -0.88665700      -1.83604217       0.83374071
H        1.71573198      -1.41198301       0.60242945
H        1.41271663      -2.22845554       0.05940235
H       -0.31352556      -2.49712467       0.40648073
H       -0.25647530      -0.61549878       1.45177829
H        0.58410805      -2.51585054       1.00483704
H       -0.34951398      -1.63311529       1.54729915
H        0.98762548      -0.97296667      -0.87265110
H        1.35029984      -2.21739864       0.39067054
H        0.06644350      -0.65765816      -0.88073486
H        0.48187137      -2.09649324       1.49590385
H       -0.17042562      -2.15003419      -0.49191314
H        0.04207527      -0.55577880      -0.79837370
H        0.83720267      -1.95527565      -0.50075573
