21
Properties=species:S:1:pos:R:3 pbc="F F F"
H        0.00000000       0.00000000       0.00000000
H       -0.47549847       0.19475858       0.88842231
H        0.72413015       0.72254789      -0.08296918
H       -0.64100856       0.15966894      -0.78545380
H       -1.37709951       0.47790521       0.65389198
H        0.53352392       1.30836868      -0.90382671
H       -0.23629734       0.94540608      -1.40428603
H        0.66648054       1.33726239       0.73686403
H       -0.12207973       1.00491023       1.30346680
H        0.36984801       2.23746634      -0.66289407
H        0.46039325       2.30533791       0.46542007
H        0.37045893       2.28752542      -0.55679244
H       -1.50270069       0.42448932      -0.36330765
H       -0.85257089       1.69906676      -1.38805819
H       -0.84957296       1.72745812       1.34821129
H       -1.54836893       1.44598067       0.94854534
H       -1.74889624       1.36659300      -0.68757951
H       -1.72225952       1.97649312       0.07095420
H       -0.52329981       2.45072508      -0.96981394
H       -0.06566763       1.95174539      -1.66956592
H       -0.07542187       1.92302787      -1.65465117
