20
Properties=species:S:1:pos:R:3 pbc="F F F"
H        0.00000000       0.00000000       0.00000000
H       -0.58002573       0.67024595       0.51736289
H       -0.09239724       1.50197697       0.65338820
H       -0.79824799       0.29179174       1.38754249
H        0.84073150       0.43977645      -0.21869659
H        0.10965680       1.61998510       1.59853852
H       -0.32712537       0.82558608       2.07965755
H        0.40690666       0.26936477       2.53257990
H        0.73461640       1.35868430       0.27410790
H        1.12571514       1.56656921       1.73306108
H        1.31920803       0.77195907       2.26147008
H        1.44802105       1.44763935       1.00654554
H        1.87667274       0.16205901       1.74638176
H        1.32914376      -0.75958884       1.62429714
H        0.16349947      -0.77460212       0.56685138
H       -0.31984937      -0.62312132       1.39840913
H        1.58879328      -0.05527163       0.27995628
H        0.38348109      -0.60622233       2.07153726
H        1.92507815       0.59884024       1.00235903
H        1.14303398      -0.84398204       0.67229825
