21
Properties=species:S:1:pos:R:3 pbc="F F F"
H        0.00000000       0.00000000       0.00000000
H        0.35866648      -0.83756196      -0.47241095
H       -0.34465873      -1.58497047      -0.47858295
H       -0.87582630      -0.18477097       0.38320866
H        0.47283173      -0.55441535      -1.39699471
H       -0.16565090      -1.08211255      -1.90879202
H       -1.10161662      -1.23787999       0.02599993
H        0.18944573       0.42490381      -1.51510620
H       -0.02252430       0.72316861      -0.66985792
H       -0.64065903      -1.75975382      -1.33308423
H       -1.15941036      -1.14043629       0.13906167
H       -0.44599566      -0.39139146      -0.14348021
H       -0.58821547       0.40709135      -2.18462062
H       -1.36305022       0.83858097      -1.66812110
H       -0.77208841      -0.53044564      -2.32859564
H       -1.58120418      -1.50911021      -1.30831754
H       -2.06615877       0.09117246      -1.64960670
H       -1.72131610      -0.72520423      -1.99042428
H       -1.01116192       0.98736048      -0.74810183
H       -1.49347341       0.40416968      -0.13546401
H       -2.19896746      -0.12666604      -0.70994234
