21
Properties=species:S:1:pos:R:3 pbc="F F F"
H        0.00000000       0.00000000       0.00000000
H        0.69739223       0.29845181      -0.69129914
H        0.25665134       1.02099967      -1.27181268
H        0.93037391      -0.53911018      -1.23676527
H       -0.90016329       0.46354809      -0.16778871
H       -0.74248016       1.07826269      -0.97437775
H        0.20688523       0.62208849      -2.21612048
H       -1.34217119       0.81407082      -1.76424944
H        0.63632911      -0.30949664      -2.19287157
H       -1.58236194      -0.25899979      -0.42440769
H       -1.89298904      -0.04116130      -1.32113397
H       -0.74838614       0.51561904      -2.54634237
H       -0.05383378      -0.94537103      -2.45248652
H        0.35479134      -1.33350921      -0.93517160
H       -1.62881112      -0.85763371      -1.88407862
H       -1.02253079      -0.49178162      -2.62697840
H       -1.16975951      -1.52787971      -1.25688982
H       -0.13946070      -1.00592303      -0.14830178
H       -1.84282088       0.06041014      -1.40451849
H       -2.05808997      -1.20472419      -1.08201325
H       -0.19342983      -1.50114989      -1.66528654
