21
Properties=species:S:1:pos:R:3 pbc="F F F"
H        0.00000000       0.00000000       0.00000000
H        0.12529835      -0.08895500      -1.01474690
H        0.49320230       0.82263768      -1.30965257
H        0.30129555       0.87984765       0.28835735
H        0.68322623       1.37489569      -0.52551007
H       -0.13324592       1.29229867      -1.88848066
H       -0.95032907      -0.08439321       0.19445665
H        0.13302368       2.23253822      -0.64819086
H       -0.97331583       0.70647782      -1.95496643
H       -1.41690993      -0.17334822      -0.71533078
H       -0.31409863       2.15270686      -1.44946885
H       -0.55672914       2.25035071       0.11157727
H       -0.68812782      -0.19116068      -1.43774557
H       -0.47933766       1.40579915       0.69739348
H       -2.02823019       0.64312422      -0.82927966
H       -1.48835301       2.19693470      -0.31567886
H       -1.29230750       0.87810194       0.60424513
H       -1.32713115       2.14351869      -1.32784390
H       -1.67509699       1.13817227      -1.65604949
H       -1.71949816       1.24883866      -1.64235890
H       -1.52053189      -0.01795840      -1.33254218
