21
Properties=species:S:1:pos:R:3 pbc="F F F"
H        0.00000000       0.00000000       0.00000000
H        0.85755634      -0.19475858       0.52914101
H       -0.53313851      -0.81366080      -0.04219427
H       -1.43114877      -0.65399188       0.42834502
H       -1.44543719       0.28811181       0.83523607
H        0.83034796      -1.13340390       0.78656209
H       -0.07307360      -1.56732154       0.36816746
H       -1.48129320      -1.31507444       1.14144826
H        0.79437876      -1.18681979       1.81085551
H       -0.08761549      -1.65036786       2.05689049
H       -0.64912754      -0.98012191       2.59429026
H       -0.56610703      -1.94881964       1.19939637
H       -1.44656396      -1.42286801       1.16073966
H        0.85755634       0.33293861       1.34742975
H       -0.62869173       0.81580901       0.88547015
H       -1.75638819       0.11332846       1.68441105
H        0.78191978      -0.28016287       2.16564965
H       -0.28008798       0.97547793       1.83747077
H       -1.75638819      -0.83373344       1.91054094
H       -1.96119690      -0.01459265       1.70752168
H       -0.05384761      -0.12868208       2.64168262
