20
Properties=species:S:1:pos:R:3 pbc="F F F"
H        0.00000000       0.00000000       0.00000000
H       -0.30729049       0.46966103      -0.79564559
H       -1.13274407       0.00000000      -1.01036799
H       -1.31210816      -0.63587439      -0.29513860
H       -1.90994918       0.67024595      -1.01718831
H        0.07661150       0.72254789       0.72483039
H       -0.30703920       1.55427885       0.39453268
H       -0.58805919       1.36950791      -0.51922244
H       -0.65386945      -0.74740851       0.25915086
H       -1.59549403       1.49389482      -0.67063832
H       -2.16339540      -0.40626085       0.23013431
H       -1.17623615       1.78389239       0.88960636
H       -1.98019123       1.74453843       0.18799245
H       -2.59151864       1.03545856       0.45547235
H       -1.34732389       1.03648388       1.57183313
H       -1.02734947      -0.48321664       1.17786694
H       -2.55186296       0.33864182      -0.29698879
H       -2.24083233       0.60396898       1.31811929
H       -1.94208074      -0.26296821       1.11264491
H       -0.54261333       0.35669580       1.45697570
