21
Properties=species:S:1:pos:R:3 pbc="F F F"
H        0.00000000       0.00000000       0.00000000
H        0.49089283       0.77460212       0.32722577
H       -0.15016776       1.50641334       0.36665419
H        0.22856385       2.17665935      -0.31206271
H       -0.97105587       0.29845181      -0.14594820
H        0.39577049      -0.28314662      -0.84335905
H        1.22558498       1.00421572      -0.35161790
H       -0.29480529      -0.23246998      -1.52790117
H        1.14457321       0.35972095      -1.12503219
H        1.09643412       1.84430718      -0.74757046
H       -1.16651511       0.17406490      -1.14577198
H        0.07522741       0.42861265      -2.13954353
H        0.91061789       0.85476899      -1.99308527
H       -0.43034530       2.32814026      -1.01274323
H        0.03208569       2.11030173      -1.84145606
H        0.93618357       1.71992028      -1.75363779
H       -1.14712119       1.69226587      -0.83966249
H       -1.35682857       1.05391252      -1.51686466
H       -0.48264924       1.16134429      -2.12485337
H       -1.08082247       1.20796156       0.05339357
H       -0.49131551       1.29382932      -2.17723560
