21
Properties=species:S:1:pos:R:3 pbc="F F F"
H        0.00000000       0.00000000       0.00000000
H        0.05739931      -0.52769721       0.81627315
H        0.33145738       0.95566529       0.17367697
H        0.16284899       0.16911954       1.56236339
H        0.30926910       1.03396392       1.13967407
H       -0.67049718       0.18693200       2.16114616
H       -0.91605568      -0.05341591      -0.45968756
H       -0.47583628       1.51188660      -0.12999833
H       -1.29113603      -0.44894239       1.76298523
H       -0.85022831       1.97543466       0.70563173
H       -1.17272532       0.92869580      -0.47970548
H       -2.06641674       0.02071863       1.40743041
H       -0.89319861      -0.89354932       0.94212896
H       -0.30457914       1.64308250       1.50883341
H       -1.53224909      -0.52307695       0.13004544
H       -1.77749681       1.69228804       0.79541957
H       -2.27599311       0.11979061       0.42481664
H       -1.04226756       1.14259732       2.11854959
H       -1.91968191       0.89959484       1.64063287
H       -2.12427115       1.01358140       0.06959921
H       -1.83489609       1.16459084       1.61169267
