20
Properties=species:S:1:pos:R:3 pbc="F F F"
H        0.00000000       0.00000000       0.00000000
H       -0.47398776      -0.23709527       0.75329894
H       -1.02195263       0.62054718       0.88561666
H        0.10031158      -0.28777191       1.53794742
H       -0.80308354       1.29638231       0.07353878
H       -0.37457138       2.13394427       0.48364982
H        0.58588493       2.15175676       0.12236011
H       -0.15837537       0.92740691      -0.41007015
H        1.26997697       1.94701052       0.93120158
H       -0.03553538       0.50662708       2.17339969
H        1.06076789      -0.26995945       1.17665768
H        0.65988195       1.45510411      -0.41725087
H        1.43901145       0.52465069       1.59329581
H        1.72383606       1.16023803       0.77843153
H        0.69403249       1.89359462       1.77899790
H        0.78798944       0.99980384       2.15365911
H        1.36280084       0.87191331      -0.07982779
H       -0.75670528       1.12134171       1.77923751
H       -0.29788214       1.94701052       1.52097464
H        0.90946352      -0.02276677       0.13778839
