21
Properties=species:S:1:pos:R:3 pbc="F F F"
H        0.00000000       0.00000000       0.00000000
H       -0.19310522      -0.77460212      -0.55746114
H       -0.54706800      -0.01689900       0.80528992
H        0.46676630      -1.48368204      -0.65663874
H        0.88064134      -0.11162928       0.24565732
H        0.88064134      -0.16230592       1.21802187
H       -1.16296196      -0.77055967       0.77824891
H        1.24602818      -1.02013397      -0.17580807
H        0.25654387      -2.33248115      -0.22837764
H        1.48183894      -1.63003397       0.54563224
H       -0.89570820      -1.44080567       1.50809109
H       -0.06249166      -1.07495356       1.98267126
H        0.91442251      -2.45686793       0.54947031
H        1.22765803      -1.04215360       1.44934082
H        0.53043807      -1.56810522       1.98839855
H        0.10762656      -0.17656794       1.57937312
H       -0.90280497      -1.24426317      -0.08438015
H        1.43100548      -1.53720164       0.57361197
H        1.57109046      -1.64909244       1.58545482
H        1.89924455      -2.16923571       2.19857883
H        0.93558693      -1.81844616       1.60218906
