21
Properties=species:S:1:pos:R:3 pbc="F F F"
H        0.00000000       0.00000000       0.00000000
H       -0.06381270       0.34709048       0.90747839
H        0.75143975       0.17230713       1.29882503
H        1.21615148       0.98596793       1.56351376
H        1.33369589      -0.23705482       0.63439929
H        2.09770560       1.03938389       1.04070127
H        2.13365769       0.20424640       0.35851353
H        2.08197880       0.50269818      -0.62208819
H        1.26889133       0.15560770      -1.03010511
H        0.90971559      -0.46354809      -0.10423314
H        2.02540803       1.81398606       0.45518816
H        0.63234681       1.71777916       1.29577243
H        1.09314299       2.27355790       0.64244419
H        2.04264140       1.51553428      -0.52662313
H        0.64400464       0.92697620      -1.29054940
H        1.39208460       0.06240347      -0.84180957
H        0.70228797       1.17951238      -0.46170467
H        1.71056223       1.09055734      -0.29201710
H       -0.10496437       0.70907992      -0.65897578
H       -0.14240947       1.26393557       0.86803758
H        0.47487319       2.18460298      -0.17189819
