20
Properties=species:S:1:pos:R:3 pbc="F F F"
H        0.00000000       0.00000000       0.00000000
H        0.42017129      -0.49897972       0.72286665
H       -0.15338996      -0.55577880      -0.78462875
H        0.02545682      -1.41342711      -0.50039136
H        1.37076926      -0.13312763       0.84872252
H        0.72978520      -1.67761898      -1.19856620
H        0.47708815      -1.36001122       0.41966289
H        1.55198967       0.62053305       0.25947249
H        0.73845631       0.64286757      -0.30777836
H        0.95468819       0.45809659      -1.23899484
H        1.45810556      -1.65846300       0.37659109
H        1.55231261      -1.79562712      -0.69103920
H        2.00656009      -0.88386089       0.59396231
H        0.83627641      -0.90625048      -1.86712742
H        1.78687429      -0.54039836      -1.74127150
H        2.30355716       0.35634118      -0.38757688
H        1.90097249       0.30292529      -1.33012462
H        0.21326840      -0.15884197      -1.54068375
H        2.53752089      -0.56855237      -0.15884715
H        2.23722506      -1.09881043      -1.00514984
