20
Properties=species:S:1:pos:R:3 pbc="F F F"
H        0.00000000       0.00000000       0.00000000
H        0.97460508       0.08895500       0.30912116
H       -0.57594448       0.05341591       0.84779638
H       -0.16042936       0.75366068      -0.59524691
H        0.08432567       0.14237091       1.62847197
H        0.97460508       0.17791000       1.33157456
H        1.27738750       0.87572753      -0.06189042
H        1.51319838       1.48562765       0.65954989
H       -0.89446127       1.30988193      -0.14232439
H        0.54326487       1.33927560      -0.60916638
H        1.37733376       1.10531688       1.50778437
H       -0.46938837       2.22147465       0.06172389
H       -0.50343072       2.30586791       1.03114629
H       -0.11278993       1.00721526       2.03003216
H        0.62731552       1.63126850       1.97057092
H       -0.85042065       1.38566947       1.51941061
H        0.89825583       2.30210018       0.56712496
H        0.34646806       2.21912336      -0.24147087
H        0.38305652       2.44774103       1.39870179
H       -1.08559406       0.74280190       0.75472850
