21
Properties=species:S:1:pos:R:3 pbc="F F F"
H        0.00000000       0.00000000       0.00000000
H        0.59380746      -0.49897972      -0.58861941
H        0.40353256      -0.23478785      -1.56192410
H        0.70430321       0.46354809       0.58515310
H        1.27637386       0.16412333      -1.92571235
H       -0.27030516       0.53658068      -1.49667609
H        1.95319366       0.07973012      -1.23083568
H        2.24101877       1.03539538      -0.99170315
H        1.14591491       1.16237760      -2.12519336
H       -0.51691282       0.69624960      -0.51330721
H        1.53650868      -0.31918105      -0.38197315
H        0.23132992       1.41302121      -1.90434742
H       -0.24740258       1.59004045      -0.23660669
H        0.51738691       1.45293093       0.38638726
H        1.74803007       1.61858618      -1.59578228
H        0.17753807       2.02153015      -1.06519949
H        1.40248156       1.81878304       0.01749206
H        1.16475010       2.21628881      -0.86319590
H        1.20384145       2.20440698      -0.95235670
H        0.21129285       2.17301083      -0.10396332
H        1.64421415       0.19935623       0.26877686
