21
Properties=species:S:1:pos:R:3 pbc="F F F"
H        0.00000000       0.00000000       0.00000000
H        0.19410905      -0.89379078       0.33394706
H       -1.01346803       0.15966894       0.02668692
H       -1.41653836       0.17748140      -0.91699785
H       -0.63394773      -1.33356726       0.59658659
H        0.61777735      -1.39296377      -0.31387186
H        0.01269883      -2.16433239      -0.61750740
H       -0.77695912      -2.11365581      -0.05011582
H       -0.27244478      -2.07993913      -1.54467070
H       -2.09141731      -0.59388709      -0.97040993
H       -1.39255357      -0.66332132       0.42743731
H        0.30164671       0.01781246      -0.98082405
H       -0.47605217       0.10220566      -1.56058538
H       -1.29454398      -1.99098408      -1.51775646
H       -1.50640798      -1.97036314      -0.59390754
H        0.09310943      -1.20324969      -1.93339908
H       -1.51041901      -1.11113644      -1.87458551
H       -1.69094193      -1.20860171      -1.68809342
H       -1.98132682      -1.09481096      -0.29401040
H       -1.20197511       0.18203709      -0.99933606
H        0.72804654      -0.83098668      -1.19479656
