21
Properties=species:S:1:pos:R:3 pbc="F F F"
H        0.00000000       0.00000000       0.00000000
H        0.15274149      -0.33235219      -0.95892441
H        0.25876534       0.93864530       0.00681390
H        0.46686724       0.45338497      -1.62830424
H       -0.86725980      -0.14329264       0.27507374
H       -0.77784002      -0.66470438      -1.23620427
H       -1.26012111       0.73655498       0.41503435
H       -0.53522968       1.37242937       0.27991587
H        0.52921224       1.29094696      -1.03845096
H       -1.42435074      -0.51322359      -0.52406776
H        0.48308045       1.20283723      -0.95921367
H        0.76070368       0.65944839      -2.47655869
H        0.76286757       0.62816834      -2.48280549
H        0.19811076      -0.36027583      -1.16593313
H       -1.60398436      -0.64415157      -0.38801950
H       -0.42336491      -1.80006027      -0.89695096
H       -0.35873231      -1.78234863      -0.91217005
H       -0.38249418      -1.78234863      -0.88356972
H       -0.42336491      -1.80006027      -0.89695096
H       -0.38249418      -1.78234863      -0.88356972
H       -0.40044093      -1.80006027      -0.92265141
