21
Properties=species:S:1:pos:R:3 pbc="F F F"
H        0.00000000       0.00000000       0.00000000
H        0.21426670       0.05341591       1.00227761
H       -0.60280317       0.35186774       1.54693079
H       -0.33471626       1.20066690       1.94155777
H       -0.94604510       0.21783850      -0.07487299
H        0.62393343       1.43028045       1.65591431
H        0.89977485       0.73891008       1.09303653
H       -1.03456187       1.01244867      -0.63058907
H       -1.49619997       1.67353129      -0.08476764
H       -0.09190488       1.37830079      -0.80629867
H       -1.68762589       1.20998323       0.81066692
H       -1.33692479       0.40260947       0.79755682
H       -0.87028563       2.46793032       0.08983287
H       -1.18242776       1.70503128       1.55432415
H       -0.69175673       2.55688524       1.09657931
H       -0.02629274       2.31644964      -0.37145934
H        0.55687600       0.79510999      -0.37382582
H        0.31734288       2.39721632       1.19429088
H        0.69698131       2.27920818       0.30546600
H        0.46522576       1.52052689       1.70699966
H        0.99655581       2.53436089       0.29967815
