21
Properties=species:S:1:pos:R:3 pbc="F F F"
H        0.00000000       0.00000000       0.00000000
H       -0.56912082      -0.52595156       0.67290437
H       -0.59848535       0.58582085      -0.59325629
H        0.61332637       0.61471456       0.54706556
H        0.42632210       0.48394883       1.60160661
H       -0.32944453       1.50425148      -0.41391551
H        0.36670026       1.57037985       0.26563483
H       -0.34251136      -0.24280494       1.57652879
H        0.06058601       1.31567979       1.95163739
H        0.04764512       1.95155418       1.21437407
H       -1.49037910      -0.24280494       0.53444070
H       -1.13895202       0.16655701       1.95884538
H       -0.84400630       1.09784126       2.23855209
H       -1.08429790       1.94402790       0.01603079
H       -1.47715509       0.45401180      -0.21894866
H       -1.80977261       1.22148001       0.08627882
H       -0.88277590       2.20219779       1.07453322
H       -1.98765469       1.09709311       1.08937883
H       -1.46683908       1.71255589       1.70233452
H       -1.14085495       1.93800592       0.11697292
H       -0.30568296       2.31273794       0.67504328
