21
Properties=species:S:1:pos:R:3 pbc="F F F"
H        0.00000000       0.00000000       0.00000000
H       -0.50007260       0.47200781      -0.61275923
H       -0.36002165       0.18477097       0.88560998
H       -1.09509993       0.82064533       0.82743359
H        0.07096046       1.16882455      -1.10438061
H       -0.82729369       1.71532536       1.25305235
H        0.11978447       1.59093845       1.62841177
H       -1.17888451       1.00541627      -0.12487978
H        0.36481985       0.67250782       1.41745269
H       -0.24026915       2.04867220      -0.82677460
H        0.72606766       2.22681284       1.20871496
H        0.96798605       0.33235219      -0.07660951
H        1.39670968       1.64362204       0.81098557
H        1.22271562       0.70497674       1.00264144
H       -0.97848606       1.99479914      -0.31004468
H       -0.77520627       2.38203335       0.50055063
H        0.13167721       2.72912383       0.42877698
H        1.03489101       0.25135946       0.04187059
H        1.02148139       1.07986951      -0.72765672
H        0.95425427       1.83496046       0.77151412
H        0.93144751       1.83496046       0.80101246
