21
Properties=species:S:1:pos:R:3 pbc="F F F"
H        0.00000000       0.00000000       0.00000000
H        0.79402828      -0.31375703       0.65969908
H        1.59159446      -0.39815024       0.10758764
H        0.55707932      -1.22534966       1.06734824
H        1.93355191      -1.30480719       0.20297760
H        1.95059311      -1.63715935      -0.76788568
H        1.47529721      -0.18031174      -0.83426279
H        1.36120117      -2.41176152      -0.79376310
H       -0.36200839      -1.52380145       0.72161996
H        0.47811466       0.04930180      -0.91318297
H        1.64071286      -0.97492188      -1.37212265
H        1.29370356      -1.89559555       0.81939876
H        0.68088794      -2.20569801      -1.37946749
H        0.91642225      -2.61814356       0.19577450
H        0.80806386      -1.25806856      -1.78995574
H       -0.14058466      -2.38144398       0.20321375
H        0.94466138      -2.53614831       0.13593924
H       -1.51745331      -2.05763006      -0.10379198
H       -1.51745331      -2.05763006      -0.10379198
H       -1.51745331      -2.05763006      -0.10379198
H       -1.51745331      -2.05763006      -0.10379198
