20
Properties=species:S:1:pos:R:3 pbc="F F F"
H        0.00000000       0.00000000       0.00000000
H        0.15607943       0.96046287      -0.03480161
H        0.64886868      -0.40936196      -0.59954417
H        1.18385267       0.29971796      -0.99836588
H        0.81811655       1.13144898      -0.64833510
H        2.10067010       0.14823717      -0.70757353
H        0.15387331      -0.26784137       0.86771065
H        0.41941059       0.52676880       1.36384118
H        2.12137437      -0.62636495      -0.11797720
H        1.15488195      -0.95871711      -0.02439132
H        1.55321622       1.54081094      -0.15832272
H        1.32545805       0.37528801       1.68662953
H        2.34435844       0.89794338      -0.27723014
H        0.91050857      -0.87774146       0.80782813
H        1.30450833       1.62976599       0.83342087
H        0.36007822       1.29813731       0.68945682
H        2.40758348      -0.31105644       0.75765163
H        1.90981674       1.09783590       1.25099981
H        1.61039579      -0.50581503       1.37399960
H        2.54964352       0.59949160       0.68303460
