21
Properties=species:S:1:pos:R:3 pbc="F F F"
H        0.00000000       0.00000000       0.00000000
H       -0.67230010      -0.60990006       0.35227177
H       -1.41321456       0.00481451       0.70793402
H       -0.29223189      -1.16612136       1.12653911
H       -1.14914644       0.98413366       0.55132639
H       -0.91099501      -0.93650782       1.91249943
H        0.64856172      -0.94828284       1.25109696
H       -1.05484939       1.36258793       1.44348192
H       -0.23210031      -0.58941734       2.51804972
H        0.90084261      -0.21647161       0.66044676
H        0.71237445      -0.60119236       2.15857530
H       -1.51913095      -0.18994407       1.71001923
H       -0.07322717       1.66103971       1.46933031
H        0.85755634      -0.19475858       0.52914101
H       -0.40923560      -0.04519808       0.76461655
H       -0.23198581       0.96632123       0.09108418
H        1.01252580       0.25645602       2.00795579
H        0.35025409       1.07521892       2.19789147
H       -1.25312543       0.66769832       2.20702481
H        0.37103319       1.34477544       0.75531411
H        1.09631026       0.44122699       1.05564237
