20
Properties=species:S:1:pos:R:3 pbc="F F F"
H        0.00000000       0.00000000       0.00000000
H        0.68725604      -0.43977645       0.53135377
H        1.32397175       0.29203478       0.61565274
H        1.03125405       1.10569561       0.16806656
H        2.21035767       0.02784291       0.17085361
H        2.06253767      -0.86683714      -0.30979261
H        2.37204981       0.68892550      -0.52548420
H        1.16367567      -1.13659322      -0.05242246
H        2.11315703      -0.71535635      -1.27028835
H        0.71547264      -1.18453062      -0.85563719
H       -0.04488779      -0.46966103      -0.85174203
H        1.18984175      -0.94496989      -1.65511358
H        0.19616951       0.93864530      -0.16888885
H        1.68487382       1.36988747      -0.57779384
H        0.28545412       1.06303215      -1.18371892
H        0.09870432       0.13562524      -1.58166969
H        1.26039100       1.32722402      -1.36544549
H        2.32473564       0.19387743      -1.42326629
H        0.84956825      -0.15035975      -2.10329819
H        1.50759757       0.55872017      -1.99255514
