21
Properties=species:S:1:pos:R:3 pbc="F F F"
H        0.00000000       0.00000000       0.00000000
H       -0.77018702      -0.01689900       0.59547228
H       -1.30504966      -0.83337140       0.27826783
H       -0.36469549      -0.28109086       1.50051546
H       -0.73690999      -1.14593530       1.74863112
H        0.01007694      -1.84275198       1.84752965
H        0.89256084      -0.19475858       0.46768385
H       -1.44123840      -1.41012716       1.05045652
H       -0.15908848      -0.74740851      -0.68512434
H        1.31976330      -1.05240095       0.09989107
H        0.85674137      -1.43339002       1.59525383
H       -0.16357107      -2.55183196       1.20323706
H       -0.93599868      -1.27314782      -0.50815380
H        1.21641052      -1.89693809       0.75318193
H       -0.72517931      -2.24122334      -0.24036840
H        0.58786809      -2.58243227       0.46492332
H       -0.98917395      -2.30118847       0.75199598
H        0.18623370      -2.35285258      -0.31250054
H        0.64595318      -0.35442752       1.45105267
H        0.88209927      -1.33374667       1.64724886
H        1.53621495      -1.26583540       0.81862038
