21
Properties=species:S:1:pos:R:3 pbc="F F F"
H        0.00000000       0.00000000       0.00000000
H        0.38154608      -0.49897972      -0.74397767
H       -0.17729433      -0.72254789       0.70697600
H        0.42440128      -0.59816098       1.52905512
H        1.04715490       0.19623804       1.34349680
H        0.94835067      -1.41182184       1.63626575
H        0.73769730       0.52769721       0.35411772
H        1.81705618      -1.11355710       1.56751359
H       -0.04078647      -1.60239553       0.31290165
H        0.40482894      -1.51659620      -0.61268282
H        1.33639860      -1.79974282      -0.62085789
H        0.73159397      -2.04769611       0.93146706
H        2.00571585      -0.16961405       1.36873794
H        2.21922636      -1.63950872       0.78332096
H        1.31196713      -0.24833614      -0.88381845
H        1.93303037      -1.04608214      -0.77605772
H        1.48785734      -2.16720581       0.41631141
H        1.27096903      -1.80135369      -0.51773119
H        2.05057502      -2.27774596      -0.00318521
H        2.83848643      -2.64285254      -0.01009963
H        3.58353233      -2.17084479       0.25533026
