21
Properties=species:S:1:pos:R:3 pbc="F F F"
H        0.00000000       0.00000000       0.00000000
H        0.87909138       0.39891118       0.34841394
H        0.84517229       0.28090307       1.31432509
H        1.66797733      -0.09613690      -0.08275905
H        0.24040787      -0.70907992      -0.62247139
H        1.26187718      -0.79803491      -0.66731924
H       -0.12362196      -1.56672239      -0.19205794
H        2.13062000      -0.53591335       0.65250909
H       -0.65177971      -1.30253053       0.64733231
H       -0.20556101      -1.70144176       1.48104858
H       -0.50360084      -0.39891118       0.80036247
H        0.00587487      -0.23924224       1.67686939
H        0.60746741      -2.17662239       0.01188144
H        0.53389502      -2.28726268       1.07689190
H        1.48500800      -1.71307433      -0.24959433
H        2.02549624      -1.56159353       0.54601038
H        0.21852136      -1.05733824       2.04270840
H        1.18820524      -1.14173150       2.06824255
H        1.68280387      -0.31807485       1.48920965
H        1.58785152      -0.34712136       1.67208803
H        1.52942979      -1.58150792       1.26935375
