21
Properties=species:S:1:pos:R:3 pbc="F F F"
H        0.00000000       0.00000000       0.00000000
H       -0.02074104      -0.97334045      -0.01546210
H        0.70584548      -1.40482998      -0.59788173
H        0.68423760       0.28314662      -0.63222444
H        1.13373923      -0.55441535      -1.01921535
H        0.19018230       0.34709048       0.88961780
H        1.08640778       0.84213853       0.81868762
H        0.27274451      -0.42751163       1.47377193
H        1.36731076      -1.90380967      -0.08646816
H        1.23939347      -0.40969917       1.81815004
H        1.42188549       0.78872263      -0.14977795
H        2.24586868      -1.37785816      -0.15600005
H        0.25410342      -1.23753238       0.93742144
H        1.65668404       0.40396163       1.48365688
H        2.36650681       0.05687115       0.91467476
H        1.04888117      -1.85039377       0.88773572
H        2.18442941       0.27470964      -0.01669794
H        1.72675395      -1.32444215       1.45092976
H        2.03561521      -0.55702138      -0.50057685
H        2.43275762      -1.04129553       0.84310770
H        2.45278573      -0.01534212       0.82460213
