21
Properties=species:S:1:pos:R:3 pbc="F F F"
H        0.00000000       0.00000000       0.00000000
H       -0.96783787       0.05067664       0.09371616
H        0.16947366      -0.95433736      -0.09262741
H       -0.69142014      -1.51055861      -0.03967816
H        0.24232857       0.43148959      -0.89912045
H       -1.42962980      -0.81374186       0.11137453
H       -0.57312942       0.80994380      -1.27310121
H       -1.38547432       0.58033025      -0.68940842
H        0.56963307      -1.07872427      -1.02949679
H        0.65397382      -0.15131736      -1.46092105
H        0.06599236      -0.20199400      -2.23536968
H       -0.71779573       0.44087356      -2.07499075
H       -2.00830698      -0.03438431      -1.22562599
H       -0.33425570      -1.14409769      -2.30997515
H        0.02126813      -1.58837163      -1.58570910
H       -2.00830698      -0.86667258      -0.83112121
H       -0.72307587      -1.83901525      -1.01021743
H       -1.72828579      -1.53691852      -1.55616069
H       -1.59879553      -0.08507800      -2.05179191
H       -1.98448730      -0.89357328      -0.61944556
H       -1.31204844      -2.24572134      -0.77846152
