20
Properties=species:S:1:pos:R:3 pbc="F F F"
H        0.00000000       0.00000000       0.00000000
H        0.41703188       0.87984765      -0.00365971
H        0.69151276      -0.55622131      -0.51551127
H       -0.83735520       0.01689900      -0.49660000
H        1.42996907       0.08664626      -0.82328963
H        1.41198170       0.14006217      -1.84805655
H        1.25156403       0.99330318      -0.51636004
H       -1.01376927       0.98497444      -0.78820229
H       -0.25858748       1.46566844      -0.50732255
H        0.27112934      -0.87152982      -1.33521807
H       -0.70479798      -0.56892186      -1.32880569
H        1.19888043       1.05849278      -2.09123135
H       -1.03085470       1.00187349      -1.76158988
H        1.12228489       1.60801768      -1.32798600
H       -0.26162040       1.61658812      -2.05094862
H       -0.86884999       0.09521657      -2.07748318
H        0.28202409       1.96598399      -1.18694592
H        0.73118186      -0.41160476      -2.13180470
H        0.01376754       0.11302903      -2.60092640
H        0.29952163       1.11190867      -2.58278441
