21
Properties=species:S:1:pos:R:3 pbc="F F F"
H        0.00000000       0.00000000       0.00000000
H       -0.33100656      -0.58582085      -0.77496612
H        0.35559073       0.13672704      -0.53035915
H        0.97859883      -0.61068147      -0.20391554
H        1.34844542      -0.00078142      -0.86670983
H        0.20388749      -1.10596395      -0.33056244
H        0.40302548      -1.14204216      -0.32204372
H        0.96391141      -0.37599048      -0.99614489
H        0.77522236      -0.82406586       0.02041342
H        0.54694796      -0.96660632       0.21677417
H        0.54415745      -0.92346585       0.36273164
H       -0.51836509      -1.31151831      -1.21361756
H       -0.51836509      -1.31151831      -1.21361756
H        0.56826115      -0.92346585       0.32366794
H       -0.56003487      -1.29452717      -1.22154915
H        0.95010448      -0.31116131      -0.15999287
H        0.64413059      -0.06582057      -0.21955132
H       -0.03538406      -1.11985826      -0.94214362
H       -0.06003487      -1.08479846      -0.96835721
H       -0.06003487      -1.08479846      -0.96835721
H       -0.08383733      -1.04851091      -0.99366862
