21
Properties=species:S:1:pos:R:3 pbc="F F F"
H        0.00000000       0.00000000       0.00000000
H        0.14728610      -1.02954066      -0.28719354
H        0.29270253       0.67024595       0.72001350
H       -0.25093007      -0.15285128       0.06800148
H        0.99225676       1.09238291      -0.13717866
H        1.52579212       1.64860415       0.54052466
H        0.99654311       1.73755920      -0.33429331
H        0.58312160       1.24969292       0.46591875
H        1.66984677       0.36983502       0.13137338
H        1.91244650       0.41773388       0.62559271
H       -0.00035527      -0.04267627       1.22419286
H        0.72632802      -0.40852836       0.59856707
H        0.50971806       1.03552794       0.89696336
H        1.19741106       0.43463287      -0.03508854
H        0.08683112      -0.92252392       1.63202560
H        0.07023562      -0.52361274       0.68655300
H        1.95750701       0.91679293       1.01606178
H        0.28349540      -0.40793484       1.58817458
H       -0.09452476      -0.85130501      -0.68689287
H        0.98613489       0.97020882       0.68909562
H        1.24096179       0.26365551       0.40498003
