21
Properties=species:S:1:pos:R:3 pbc="F F F"
H        0.00000000       0.00000000       0.00000000
H        0.15607943       0.96046287      -0.03480161
H       -0.75432932      -0.25064358      -0.56233966
H       -0.68026692       0.90978622      -0.53080326
H       -0.46828657       0.15612555       0.04809290
H       -0.27240729       0.54467964      -1.20497143
H       -0.42416394       0.40205291      -1.03045630
H        0.34899879       0.49080184      -0.86562133
H       -0.30462790       0.44937134      -0.93313617
H        0.46617383       1.31031322      -0.29621828
H        0.46617383       1.31031322      -0.29621828
H        0.46617383       1.31031322      -0.29621828
H       -1.67308140      -0.10863829      -0.05422097
H       -1.67059088      -0.14624548      -0.13830400
H       -1.62340939      -0.21759868      -0.23166138
H       -1.55570102      -0.28351974      -0.28659832
H       -1.38819337      -0.39782321      -0.33332506
H       -1.24081039      -0.46713471      -0.33110428
H       -1.50244904       0.89785212       0.73745847
H       -1.50244904       0.89785212       0.73745847
H       -1.50244904       0.89785212       0.73745847
