21
Properties=species:S:1:pos:R:3 pbc="F F F"
H        0.00000000       0.00000000       0.00000000
H        0.44047090       0.80291802      -0.09821343
H        0.00000000       0.73181123       0.64227200
H        0.77105093      -0.58319080      -0.11588772
H        1.37724578       0.99767661       0.27306244
H        0.87013990       0.08895500       0.53690553
H        0.62507808       0.25397933      -0.29475415
H        0.68792021       0.58831465      -0.27948979
H        1.27324879       1.35567379      -0.56917298
H        1.21005321       1.29594135      -0.58217001
H        1.63539183       0.74514043       1.06283522
H        1.63539183       0.74514043       1.06283522
H        1.63251328       0.71645552       1.05402863
H        1.45771372       1.62544537       0.45266423
H        1.44875860       1.63189650       0.43267649
H        1.80352664       2.33000445       0.81452990
H        1.79024458       2.30528593       0.88100123
H        1.49778974       1.61028266       0.48044732
H        0.52990574       1.81061554       1.20641410
H        0.52990574       1.81061554       1.20641410
H        0.52990574       1.81061554       1.20641410
