5
Properties=species:S:1:pos:R:3 pbc="F F F"
H        0.00000000       0.00000000       0.00000000
H        0.07742673      -0.40936196      -0.88005048
H        0.82420897       0.58474553      -0.37799406
H        0.68100828       0.36585209      -0.67505842
H        0.37226850      -0.19152346       0.02198917
