6
Properties=species:S:1:pos:R:3 pbc="F F F"
H        0.00000000       0.00000000       0.00000000
H        0.41703188       0.87984765      -0.00365971
H        0.53116828       0.01781246      -0.87799025
H        0.57085687       0.67024595      -0.52746254
H        0.36241478       0.96487433      -0.72746795
H       -0.33296537       0.39626667      -0.63693762
