21
Properties=species:S:1:pos:R:3 pbc="F F F"
H        0.00000000       0.00000000       0.00000000
H       -0.58002573       0.67024595       0.51736289
H       -0.05242664       1.13990700       1.18752599
H        0.39795029       0.40605408       0.68195140
H       -0.03947238       0.79461014       0.56133544
H        0.30264032       0.79665542       0.74445933
H        0.53462034       0.81366080       0.01407780
H        0.62964612       1.68244648       0.30479994
H        0.94807553       1.62903059       1.27900386
H        1.78543067       1.64592957       0.78240383
H        1.44642735       2.51077390       0.49054459
H        0.83150703       3.03672552       1.12187016
H        1.30841064       2.81888700       1.94233966
H        1.75132895       2.54114676       0.99851185
H       -0.11089981       1.42428434       1.30688906
H        0.68271708       2.32319236       1.60036087
H        1.06371164       1.17528081       0.67393059
H        1.06427681       1.87328124       1.37076354
H       -0.16438216       1.99620354       0.96449900
H       -0.14482915       2.13606381       0.90358770
H        1.00732160       0.42071807       0.90503156
