21
Properties=species:S:1:pos:R:3 pbc="F F F"
H        0.00000000       0.00000000       0.00000000
H       -0.30729049       0.46966103      -0.79564559
H       -0.43604255      -0.16621336      -0.06959635
H       -1.22229052       0.02854522      -0.69984001
H       -0.35320705       0.55449677      -0.55357754
H       -0.88027698      -1.15263200       0.06352246
H       -1.00525570      -1.16222334      -0.47470611
H       -0.67893904      -1.38006186       0.41643059
H       -0.89724386      -1.18095052       0.02565295
H       -0.85369790      -1.15263200       0.05104941
H       -0.69299060      -1.08058548       0.81657612
H       -0.65002513      -0.12658441       1.23981285
H       -0.67893904      -0.12658441       1.24032032
H       -0.67893904      -0.12658441       1.24032032
H       -0.67893904      -0.15593266       1.28332603
H       -0.98386103      -0.80398953       0.29531366
H       -0.98386103      -0.80398953       0.29531366
H       -1.60310447      -0.88218927      -0.13165289
H       -1.34007156      -0.54492438       0.24445251
H       -1.27153862      -0.47843778       0.41123027
H       -1.83260274       0.00920407       0.26763278
