21
Properties=species:S:1:pos:R:3 pbc="F F F"
H        0.00000000       0.00000000       0.00000000
H        0.68725604      -0.43977645       0.53135377
H        0.64687997       0.51456094       0.72022128
H        0.94915599       0.31388423      -0.02673656
H        0.77756393      -0.25372428      -0.10022396
H        1.02599740      -0.25372428      -0.01902074
H        1.36143935      -0.04121786       0.36164680
H        1.26125491      -0.06533438      -0.03259718
H        1.43457150       1.04051256       0.32494819
H        0.46905780       1.17127824       0.78842515
H        0.48591799       1.17127824       0.82202363
H       -0.06186849       1.67560577       1.35240030
H        0.46122187       0.07869112       0.56038201
H        1.64929843       0.38379520       0.34314698
H        0.24669677       1.49725127       1.70462382
H        1.65477991       0.02881539      -0.27887279
H        1.29940367      -0.29837799      -0.35836256
H        0.23887607       1.12307191       1.96846902
H        0.27730069       1.07712793       2.00155067
H        0.32249555       1.07712793       2.01373148
H        0.88194382       0.64457214      -0.75553012
