6
Properties=species:S:1:pos:R:3 pbc="F F F"
H        0.00000000       0.00000000       0.00000000
H        0.87747955       0.49504808      -0.19565487
H        0.52402318      -0.25236043       0.41243476
H        0.58073407      -0.75366068       0.20689219
H        0.65012300      -0.21783850      -0.69133729
H        1.36611462      -0.23565096       0.04375631
