21
Properties=species:S:1:pos:R:3 pbc="F F F"
H        0.00000000       0.00000000       0.00000000
H        0.73469222      -0.22961354      -0.67884368
H        0.68746328      -0.49897972      -0.47589329
H        0.84067774       0.08895500      -0.58195531
H       -0.75985485       0.13510449       0.39814869
H        0.22966474       0.29477343       0.17751184
H       -0.42739779      -0.59670675      -0.15138349
H        0.54781502      -0.79146534      -0.40506226
H       -0.12122941      -0.45071638      -0.15166524
H       -1.11941147      -0.25395983       0.55546892
H       -1.11098206      -0.28024787       0.49609667
H       -1.74502826      -0.95726186       0.10460243
H       -1.64420044      -0.99228042      -0.04562637
H       -0.47688502      -0.35221535      -0.52194631
H       -0.06052738      -1.22890472      -0.85569167
H        0.46535975      -0.00281945      -0.91466093
H        0.50369585      -0.33348942      -0.97165477
H       -0.16205946      -0.22144963      -1.54562223
H       -0.12632802      -0.22144963      -1.53394306
H       -0.05824071      -0.18435825      -1.50209332
H        0.12402946      -0.07447517      -1.37393785
