21
Properties=species:S:1:pos:R:3 pbc="F F F"
H        0.00000000       0.00000000       0.00000000
H        0.52815789      -0.26419187       0.83939010
H       -0.64721417       0.68549418      -0.24345906
H       -0.01474810       0.59653920       0.55990738
H       -0.65331221      -0.55166692       0.34232244
H       -0.13413531       1.12527061       0.45754564
H       -0.91589320      -0.30206406       0.75963688
H       -0.20747900       0.11934757       0.26764196
H       -0.34362835      -0.28699198       0.10661250
H       -0.77925640       0.74164939      -1.31282282
H        0.97366059      -0.37582114       0.04101419
H        0.86149573      -0.62218904       0.05896598
H        0.55808079      -0.42898759       1.69150639
H        0.55786204      -0.45848024       1.68527699
H        0.73584759      -0.10348701       0.35313851
H        0.38307744      -0.51672804       1.65751731
H       -0.07151031      -0.19083548       0.87627268
H       -0.89892381      -0.23907173       1.07956111
H       -0.07262033      -0.19083548       0.83411801
H        0.99273831      -0.35016745       1.12605178
H        0.48361301      -0.06990348      -0.00584525
