21
Properties=species:S:1:pos:R:3 pbc="F F F"
H        0.00000000       0.00000000       0.00000000
H       -0.47549847       0.19475858       0.88842231
H        0.47251382       0.64286757       0.64558184
H        0.40128884       0.69681674       0.63775986
H       -0.73750275      -0.42089361       1.17209780
H       -0.64618242      -0.46870184       1.20732844
H       -0.50221342      -0.56256706       1.23538470
H       -1.30308998       0.47940576       2.10664558
H       -1.30308998       0.47940576       2.10664558
H       -1.30308998       0.47940576       2.10664558
H       -1.30308998       0.47940576       2.10664558
H       -1.30308998       0.47940576       2.10664558
H       -1.30308998       0.47940576       2.10664558
H       -1.30308998       0.47940576       2.10664558
H       -1.30308998       0.47940576       2.10664558
H       -1.30308998       0.47940576       2.10664558
H       -1.30308998       0.47940576       2.10664558
H       -1.30308998       0.47940576       2.10664558
H       -1.30308998       0.47940576       2.10664558
H       -1.30308998       0.47940576       2.10664558
H       -1.30308998       0.47940576       2.10664558
