8
Properties=species:S:1:pos:R:3 pbc="F F F"
H        0.00000000       0.00000000       0.00000000
H       -0.01035373      -0.77460212      -0.58986890
H       -0.40323290      -0.16470206      -1.23927546
H       -0.10417275       0.21478069      -0.33365887
H       -0.48653418      -1.01350117      -0.76952887
H       -0.82880211      -0.22359653      -0.19242632
H       -0.92200565       0.14905497      -0.34677416
H       -0.39741731       0.02661932      -0.49688444
