21
Properties=species:S:1:pos:R:3 pbc="F F F"
H        0.00000000       0.00000000       0.00000000
H       -0.33764970       0.29845181       0.92208624
H       -0.32268092      -0.17120922       0.06929362
H       -0.15557219       0.08061332      -0.00928646
H       -0.21580797       0.81304085       0.76160467
H       -0.24467412       0.79782486       0.70440805
H       -0.42210048       1.63077962       0.23814881
H       -0.40206221       1.60606122       0.18996012
H       -0.50489658      -0.48728535       0.20182729
H       -0.72455370      -0.86820328       1.05992448
H       -0.71947801      -0.86820328       1.07341790
H       -0.71947801      -0.86820328       1.07341790
H       -0.67120183      -0.88175344       1.08220172
H        0.69943386      -0.76399910       0.14895089
H        0.69943386      -0.76399910       0.14895089
H        0.69943386      -0.76399910       0.14895089
H        0.69943386      -0.76399910       0.14895089
H        0.69943386      -0.76399910       0.14895089
H        0.69943386      -0.76399910       0.14895089
H        0.68911380      -0.80567044       0.14940399
H        1.35951817      -0.37257829       0.32828480
