21
Properties=species:S:1:pos:R:3 pbc="F F F"
H        0.00000000       0.00000000       0.00000000
H        0.38154608      -0.49897972      -0.74397767
H       -0.20075168      -1.00592303       0.03378555
H        0.49478853      -0.25851452      -0.07075302
H        0.14090508      -1.08258033      -0.76079142
H        0.21400066      -0.56243718      -0.06922561
H        0.49627510      -0.37350041      -0.19600940
H        1.35968053       0.63063872      -0.05969708
H        1.35968053       0.63063872      -0.05969708
H        1.35968053       0.63063872      -0.05969708
H        1.35968053       0.63063872      -0.05969708
H        1.35968053       0.63063872      -0.05969708
H        1.35968053       0.63063872      -0.05969708
H        1.35968053       0.63063872      -0.05969708
H        1.35968053       0.63063872      -0.05969708
H        1.35968053       0.63063872      -0.05969708
H        1.35968053       0.63063872      -0.05969708
H        1.35968053       0.63063872      -0.05969708
H        1.35968053       0.63063872      -0.05969708
H        1.35968053       0.63063872      -0.05969708
H        1.35968053       0.63063872      -0.05969708
