21
Properties=species:S:1:pos:R:3 pbc="F F F"
H        0.00000000       0.00000000       0.00000000
H        0.42330277      -0.73181123      -0.48304045
H       -0.05720615      -1.39289379       0.04624385
H       -0.46514356      -0.82076621       0.02299714
H       -0.26235503      -0.73637301       0.97158319
H        0.85649431      -0.62656075       0.26222634
H        0.30189192      -0.57989532       0.92360896
H        0.63094842      -0.92419195       1.23015141
H        0.89799136      -1.11823428       1.09840107
H        0.63094842      -0.92419195       1.23015141
H        0.99554014      -1.06907988       0.98525655
H        0.68280083      -1.21356213      -0.56036162
H       -0.57428616      -0.67594719       0.78463054
H       -0.48950052      -0.57120931       0.91458368
H        0.67504764      -1.74337602       0.07884544
H        0.76970243      -1.72139859       0.06748515
H        0.99276984      -1.69822884      -0.10343760
H        0.11454040      -0.87602186      -1.12365699
H        0.09927970      -0.93234104      -1.13878441
H       -0.52000159      -1.36346436      -0.31424379
H       -0.52789789      -1.36346436      -0.35660678
