21
Properties=species:S:1:pos:R:3 pbc="F F F"
H        0.00000000       0.00000000       0.00000000
H        0.36329272       0.89468008       0.34769225
H        0.53775364       0.64286757       0.59233969
H       -0.59311610      -0.83756196      -0.00520486
H       -0.82825035       0.03912741       0.47380611
H       -0.62869561      -0.67789304       1.00798988
H       -0.11544216       0.03118688       1.43441403
H        0.17126265       0.39208859       1.12953377
H       -0.36560768       0.47890386       1.20907426
H       -0.10237387      -0.58502579       0.66528189
H       -0.15050848      -0.13436583       0.28273559
H       -1.44309664       1.34580910       1.63612008
H       -2.47015810       1.28965390       1.96187901
H       -2.97516251       2.10612631       2.32473898
H       -2.06470823       1.98811817       2.64909720
H       -1.82454920       2.01220179       2.30016518
H       -1.72512603       2.05451536       2.05127048
H       -2.08083391       2.48458052       2.25395894
H       -1.75858831       2.81111050       2.45279527
H       -1.89203942       0.57673168       2.03841996
H       -1.83916318       0.61890268       1.97849464
