6
Properties=species:S:1:pos:R:3 pbc="F F F"
H        0.00000000       0.00000000       0.00000000
H        0.52691501       0.55577880      -0.60127473
H       -0.15641856       0.09223071       0.00823510
H        0.69577223       1.08980322      -1.03848505
H        0.41704819       0.71134901      -0.18575633
H        0.29228500       0.62625515      -0.21650869
