9
Properties=species:S:1:pos:R:3 pbc="F F F"
H        0.00000000       0.00000000       0.00000000
H       -0.81573808      -0.52769721      -0.06456009
H       -0.56462926       0.18477097       0.77143657
H       -0.76617742       0.38389546       0.40433905
H       -0.53613991      -0.82115209       0.97300804
H       -0.72414196      -1.15215230       0.57238877
H       -0.15182245      -0.45989847       0.77628320
H       -0.95523834      -0.18554598       0.03133649
H       -1.17499518      -0.34923428       0.55259395
