21
Properties=species:S:1:pos:R:3 pbc="F F F"
H        0.00000000       0.00000000       0.00000000
H       -0.13959605      -0.55577880       0.78719991
H        0.37752920      -0.22342661       1.60905600
H       -0.10949072       0.02721697       0.80404031
H        0.95128220       0.44732460       1.34592462
H        0.54865092       0.70907992      -0.37980103
H       -0.33850980       1.08753419      -0.51313990
H        0.76742125       0.11411363       0.91033870
H        1.19318843       1.07493198       0.33016193
H        0.77243590       0.25253618       0.30614272
H       -0.49145663       1.11629665       0.01712584
H        2.06090117       0.88251042      -0.52996981
H        1.80565906       1.67690945      -1.12755287
H        1.57748652       1.08725667      -1.47258139
H        0.79353094       1.80129635      -1.24352038
H        1.54040408       1.46894419      -0.62299913
H       -0.42966625       1.13273227       0.34930009
H        0.94205916       0.90214980      -0.69813001
H       -0.30803770       1.07246208       0.35461545
H       -0.04806912       0.77638686       0.92940855
H        1.01128638       0.64112180      -0.46541327
