6
Properties=species:S:1:pos:R:3 pbc="F F F"
H        0.00000000       0.00000000       0.00000000
H       -0.72715116       0.63587439       0.12237607
H       -0.55209893      -0.17778641      -0.38296914
H       -0.67142844       0.12438690      -0.76618242
H       -0.06524640       0.30754557       0.67230350
H       -0.44018295       0.02632448      -0.05878633
