13
Properties=species:S:1:pos:R:3 pbc="F F F"
H        0.00000000       0.00000000       0.00000000
H       -0.39122835      -0.01598554      -0.83368021
H        0.77750260       0.39891118      -0.53822255
H        0.24981934       1.27560055      -0.61753255
H       -0.25828049       0.96807545      -0.22236229
H       -0.34162778       1.29341304      -1.45610094
H        0.48519570       1.79239273      -1.58037114
H        0.04300278       0.91465956      -1.20200467
H       -0.26893413       0.28122109      -0.77636606
H       -0.41308850       1.16902614      -0.43986022
H        0.47682321      -0.46987450      -0.59426862
H        0.11734015       2.00719118      -1.22831202
H        0.22980982      -0.43622631      -0.94651818
