6
Properties=species:S:1:pos:R:3 pbc="F F F"
H        0.00000000       0.00000000       0.00000000
H        0.36038706      -0.22961354      -0.93312520
H       -0.31424659      -0.64286757      -0.73572707
H        0.64133012      -0.49138677      -0.84521484
H        0.25209624      -1.00871968       0.03805059
H        0.81438774      -0.15037686      -0.29542077
