21
Properties=species:S:1:pos:R:3 pbc="F F F"
H        0.00000000       0.00000000       0.00000000
H        0.45934626      -0.55622131       0.73002923
H       -0.92027718       0.33235219      -0.30976754
H       -0.18326342       0.04920557       0.26005661
H       -0.12726149      -0.05704832       0.22499901
H       -0.15081263       0.92894864      -1.07250929
H       -0.15081263       0.92894864      -1.07250929
H       -0.15081263       0.92894864      -1.07250929
H       -0.15081263       0.92894864      -1.07250929
H       -0.15081263       0.92894864      -1.07250929
H       -0.15081263       0.92894864      -1.07250929
H       -0.15081263       0.92894864      -1.07250929
H       -0.15081263       0.92894864      -1.07250929
H       -0.15081263       0.92894864      -1.07250929
H       -0.15081263       0.92894864      -1.07250929
H       -0.15081263       0.92894864      -1.07250929
H       -0.15081263       0.92894864      -1.07250929
H       -0.15081263       0.92894864      -1.07250929
H       -0.15081263       0.92894864      -1.07250929
H       -0.15081263       0.92894864      -1.07250929
H       -0.15081263       0.92894864      -1.07250929
