21
Properties=species:S:1:pos:R:3 pbc="F F F"
H        0.00000000       0.00000000       0.00000000
H        0.65604281      -0.46966103       0.54505712
H       -0.22918558      -0.59404790       1.04926181
H       -0.26727241      -0.24004748       0.16023186
H        1.13934171       0.05803618       1.20537424
H        0.73577821       0.35754001       1.43523431
H        1.23345184      -0.47419101       1.34246886
H       -0.01379786       0.34459740       1.19283772
H        0.83559489      -0.00479850       1.75903714
H        0.45619011      -0.32564855       0.57380176
H        1.78551078      -0.08525646       0.56485063
H        0.83726799       0.28059563       0.42233121
H        0.77596736      -0.59634799       0.55599141
H        1.39575887       0.50307214       1.90562296
H        0.14016849       1.07701409       1.44664586
H        0.17514670       1.11207390       1.43819964
H        1.38452578       0.55373079       1.87494636
H        0.16494119       0.51165342       1.29972589
H        0.19424611       0.57847130       1.19708061
H        0.04202795       0.20793834       0.65472925
H        0.15987700      -0.50453091       0.30036455
