21
Properties=species:S:1:pos:R:3 pbc="F F F"
H        0.00000000       0.00000000       0.00000000
H       -0.67230010      -0.60990006       0.35227177
H       -0.54920000       0.39602298       0.19013274
H        0.31481206      -0.34570819       0.44785422
H        0.37207645       0.27801487       0.48233932
H       -0.54496586      -0.16966294       1.16217971
H       -0.07087356       0.11354180       1.14136457
H        0.12982970       0.25123066      -0.04710722
H       -0.63784462       0.09690146       0.68708110
H        0.30134341       0.12770042       0.41557777
H        0.81510538       0.06560444       1.38851082
H        0.82808638       0.19337320       1.32530999
H       -0.59173584      -1.14818656       0.66009617
H       -0.59173584      -1.14818656       0.66009617
H       -0.57479733      -1.17203760       0.70751977
H       -0.57479733      -1.17203760       0.70751977
H       -0.57479733      -1.17203760       0.70751977
H       -0.54068309      -1.19433975       0.73688984
H       -0.50720662      -0.64482510       1.92306280
H       -0.50720662      -0.64482510       1.92306280
H       -0.50720662      -0.64482510       1.92306280
