9
Properties=species:S:1:pos:R:3 pbc="F F F"
H        0.00000000       0.00000000       0.00000000
H        0.87909138       0.39891118       0.34841394
H        0.78347033       0.05182070       1.25309372
H        0.28534180      -0.21580338       0.91666687
H        0.69065470      -0.18477097       0.66099674
H        0.16640776       0.41826031       0.37820703
H        0.16909546       0.63171601       0.50027525
H        0.37492642       0.90230399       0.62840098
H        0.45772719       0.68424332       0.75500929
