21
Properties=species:S:1:pos:R:3 pbc="F F F"
H        0.00000000       0.00000000       0.00000000
H        0.11786898      -0.15148079      -0.95457917
H        0.13152114      -0.49897972      -0.82570112
H        0.17454042      -0.34709048      -0.89281845
H        0.55201656      -0.00959132      -0.02423641
H       -0.83778423       0.21558283       0.31136051
H       -0.83778423       0.21558283       0.31136051
H       -0.82515055       0.21558283       0.35992840
H       -0.87508082       0.02512013      -1.15259612
H       -0.91499120       0.02512013      -1.12117589
H       -0.95377469      -0.02512013      -1.08837402
H       -1.02776992      -0.02512013      -1.01879013
H       -1.02653158      -0.07533014      -1.01756263
H        0.38214409       0.34356728      -1.81388688
H        0.37693438       0.37447077      -1.79694724
H        0.37693438       0.37447077      -1.79694724
H        0.37693438       0.37447077      -1.79694724
H        0.36558515       0.43434006      -1.76004457
H       -0.33029738      -1.09669948       0.04571265
H       -0.33029738      -1.09669948       0.04571265
H       -0.33029738      -1.09669948       0.04571265
