7
Properties=species:S:1:pos:R:3 pbc="F F F"
H        0.00000000       0.00000000       0.00000000
H       -0.61304885      -0.15966894      -0.80746567
H       -0.52327913       0.43148959       0.77027237
H       -0.57768542       0.03508964       0.19958067
H       -0.87275684       0.34709638      -0.13460553
H       -0.72798139       0.13161956       0.27992213
H       -0.77831322       0.31195760      -0.79146308
