21
Properties=species:S:1:pos:R:3 pbc="F F F"
H        0.00000000       0.00000000       0.00000000
H        0.85755634      -0.19475858       0.52914101
H       -0.32339290      -0.81366080      -0.42595083
H        0.18180522      -0.31861272       0.31770641
H        0.67093921      -0.68927389      -0.64766073
H        0.53285611      -0.79858869      -0.28184837
H        0.74411535       0.40158421      -0.35586485
H        0.92815650      -0.64786273      -0.52591586
H        1.39780462       0.16448894      -0.95986319
H        1.04667735       0.57984126      -0.86191523
H        0.66483575       0.36962837      -1.10687959
H        0.22351542      -0.54196429      -1.27288866
H        0.79862863      -0.38997328      -0.35240495
H        2.08861470      -0.25357515      -0.84360325
H        3.03409457      -0.30973035      -1.36036420
H        2.77873158       0.13004610      -2.19069386
H        2.84668851      -0.93507874      -0.71062863
H        1.93473911       0.39423797      -1.66992211
H        2.83048773       0.91467309      -1.97143316
H        3.62767553       0.71991450      -1.35508537
H        3.54018307       0.35901278      -0.94582176
