21
Properties=species:S:1:pos:R:3 pbc="F F F"
H        0.00000000       0.00000000       0.00000000
H        0.88791460       0.34709048      -0.19798161
H        0.45136064      -0.09268597       0.55306977
H        0.47863722       0.57755995       1.32982600
H        0.20421273       1.09449899      -0.03288727
H        1.33769870       0.13778350       1.20071042
H       -0.07632262       0.78400338       0.47375980
H        0.84763104       0.67563856       0.26460528
H        1.36625421       0.24265352       0.65887231
H        0.96966499       0.95601416       0.57900971
H        0.70952964       0.22816405       0.33547270
H        0.91184855       0.32439628       0.31557417
H        0.50529611       0.70726472      -0.81246167
H       -0.18432365       0.25805181      -0.40090278
H        0.34402007      -0.34338152      -0.42196086
H        0.70271444      -0.30836296      -0.19693914
H        1.24002266       0.81675881      -0.15156803
H        1.01100159       1.53877294      -0.03996734
H        1.27366519       1.07577312       0.10870451
H        0.84510267       1.71984744      -0.24861234
H       -0.55413193       1.51338589      -0.09290506
