21
Properties=species:S:1:pos:R:3 pbc="F F F"
H        0.00000000       0.00000000       0.00000000
H       -0.77018702      -0.01689900       0.59547228
H       -0.28448305      -0.60271984      -0.09317094
H       -1.21931839      -0.89358836       0.30733922
H       -0.46187854      -0.57827985      -0.21699503
H       -1.12851739       0.47879562       1.21194720
H       -0.69231516      -0.10702524       0.49093026
H       -0.44979036       0.25784713      -0.11325347
H       -1.28633559      -1.68036091       0.78150743
H       -1.32909238      -1.69650638       0.74507225
H       -0.66483742       0.25784713      -0.37208876
H       -1.29011643      -1.66326737       0.80825806
H       -1.77696919      -0.65833306       0.30244559
H       -1.77679741      -0.65833306       0.32201892
H       -2.61139965      -0.52101004       0.44213507
H       -1.77679741      -0.65833306       0.32201892
H       -0.69986385      -1.07254720       0.24782130
H       -1.78427529      -0.67782944       0.28253463
H       -1.52521956      -1.41061032       0.38120556
H       -0.73952425       0.52129132       0.44117913
H       -0.73952425       0.52129132       0.44117913
