21
Properties=species:S:1:pos:R:3 pbc="F F F"
H        0.00000000       0.00000000       0.00000000
H       -0.93989587      -0.24138860      -0.47165081
H       -0.44078067       0.22961354       0.89794981
H       -0.99807000      -0.12438690       0.20422542
H       -1.74910760       0.45880389       0.41372958
H        0.40192899       0.28302944       0.31458789
H       -1.55102551       0.97339296       0.37680742
H       -0.84146672       0.61625379       0.08340338
H       -0.99528241      -0.36526197       0.59575683
H       -1.68546343       2.14004803      -0.01129130
H       -0.46448043       0.23783135       0.27654794
H       -1.54271853       0.47401991       0.61336452
H       -0.88625890       2.69582677       0.00975363
H       -0.68399787       3.36607265      -0.74070269
H       -1.13913417       2.55241179      -0.45986822
H       -1.28297901       2.54960012      -0.57361513
H       -1.67902100       1.80057311      -0.37832716
H       -2.14716673       1.85882688       0.66834080
H       -1.50575626       2.50169444       0.19017991
H       -2.48168659       1.41918778       0.65365362
H       -1.59945679       2.30386281       0.16226572
