21
Properties=species:S:1:pos:R:3 pbc="F F F"
H        0.00000000       0.00000000       0.00000000
H       -0.90169489       0.25064358      -0.26867270
H       -0.45729712       0.40936196      -0.75588560
H       -0.19037588      -0.98938280       0.19545485
H       -1.18348706      -1.00719523      -0.06287970
H       -0.75000012      -1.07833779      -0.66025048
H       -1.62942863      -0.98938280      -1.18180239
H       -2.11829233      -1.86607218      -0.96790522
H       -1.62391090      -0.58328974      -0.44922617
H       -1.78776419      -1.00902224      -0.06152785
H       -1.11506224      -1.30747402      -0.77687556
H       -1.15785491      -0.04762122      -1.10159409
H       -1.85786974      -1.89483464      -0.48133093
H       -0.74783546      -0.41888687      -0.13939509
H       -1.81696451      -1.52853191      -0.22667438
H       -0.46425647      -0.79502976      -0.98486489
H       -0.63374615      -0.71980512      -0.93535948
H       -0.01382829      -0.36510661      -0.78782040
H       -0.62853855      -0.26949957      -0.90819740
H       -1.44346404      -1.38288260      -1.87179339
H       -1.35535884      -1.40826964      -1.89143229
