21
Properties=species:S:1:pos:R:3 pbc="F F F"
H        0.00000000       0.00000000       0.00000000
H       -0.92830116      -0.43148959      -0.07346868
H       -0.27283424      -0.70907992       0.60895658
H       -0.83268034      -0.77858007       0.83121121
H       -0.74687308       0.33235219       0.62052119
H       -0.94895142      -1.85678422       0.23645496
H       -0.17373496      -1.44742227      -0.18724683
H       -0.81308359       0.18188280       0.67250419
H       -0.51318479      -1.32860792      -0.25752217
H       -0.42563820      -1.38109124      -0.07933814
H       -1.26747835      -2.77339840      -0.44230360
H       -1.26747835      -2.77339840      -0.44230360
H       -1.26747835      -2.77339840      -0.44230360
H       -1.24346149      -2.77339840      -0.45306396
H       -1.24346149      -2.77339840      -0.45306396
H       -1.24346149      -2.77339840      -0.45306396
H       -1.24346149      -2.77339840      -0.45306396
H       -1.26747835      -2.77339840      -0.44230360
H       -1.26747835      -2.77339840      -0.44230360
H       -1.26747835      -2.77339840      -0.44230360
H       -1.24346149      -2.77339840      -0.45306396
