21
Properties=species:S:1:pos:R:3 pbc="F F F"
H        0.00000000       0.00000000       0.00000000
H       -0.02481474      -0.91159266      -0.47085762
H        0.71498305      -0.60990006       0.25471970
H       -0.70327061      -0.86091602       0.22569859
H       -0.32272923      -0.54574060       0.44058245
H       -0.39933342      -0.43385482       0.16652918
H        0.37067634      -0.49827078       1.10167289
H        0.28253230      -0.28157124       0.99871182
H        1.50246024      -0.86243623      -0.01034695
H        0.81604475      -0.74442816      -0.69076502
H        0.81105137      -0.84553725      -0.69571483
H       -0.28386337      -1.17943406      -1.31317139
H       -0.28097481      -1.20985746      -1.30377901
H        0.49357945      -0.21344787       0.68618023
H        0.65871292      -0.12717795       0.53530276
H        0.59112608       0.03362602       0.43581414
H        2.04343724      -0.58386648       0.95080280
H        2.04343724      -0.58386648       0.95080280
H        2.04343724      -0.58386648       0.95080280
H        2.04343724      -0.58386648       0.95080280
H        2.04343724      -0.58386648       0.95080280
