15
Properties=species:S:1:pos:R:3 pbc="F F F"
H        0.00000000       0.00000000       0.00000000
H        0.35866648      -0.83756196      -0.47241095
H        1.20383978      -1.23647308      -0.89652896
H        0.01550451      -0.40936196      -0.88331378
H        0.72920632      -0.06619346      -1.03899264
H        0.24698260      -0.34934008      -1.83608055
H        1.35462046      -0.87557137      -1.28693497
H        1.07395947      -0.69250816      -1.56089973
H        0.23921330      -0.09488239      -0.42868909
H        0.81920910      -0.41837704      -1.07292616
H        1.13933206      -0.23771080      -2.03505111
H        1.15810013      -0.71577966      -1.27389050
H        0.88453543      -0.55540353      -2.46806312
H        1.13594711      -1.42075276      -0.53392744
H        0.89315176      -0.20604745      -2.47660422
