21
Properties=species:S:1:pos:R:3 pbc="F F F"
H        0.00000000       0.00000000       0.00000000
H       -0.12270200      -0.91159266      -0.45526573
H       -0.66027015       0.08895500       0.78067553
H       -1.04519176      -0.69375420      -0.23251095
H       -0.42591500      -0.79089266       1.12564898
H        0.17509472      -0.26319546       0.57032573
H       -1.29747260       0.03805703      -0.82316113
H       -0.89384031      -0.80483580       0.47303298
H       -0.20505346      -1.10063946      -0.16436753
H       -0.83618164       0.32126176      -0.71177256
H       -1.72554588      -0.05719244      -0.59402388
H        0.12282038      -0.00780052      -0.20927489
H        0.14072984       0.06809810      -0.19989073
H       -0.08163685      -0.32464337      -0.16961062
H       -0.94520080      -0.74393457       0.36150479
H       -0.92812383      -0.78319573       0.36468792
H        0.61004525      -0.19403130       0.61572933
H        1.04271626       0.07253310       0.39860982
H        1.03418696       0.08917344       0.40288994
H       -0.32295793      -0.93484122       0.94812065
H       -0.33404827      -0.93484122       0.91517287
