5
Properties=species:S:1:pos:R:3 pbc="F F F"
H        0.00000000       0.00000000       0.00000000
H        0.45279220       0.75366068      -0.41837266
H        0.31255281      -0.09513843      -0.87437040
H        0.89432853       0.37845421      -0.07078003
H       -0.02500761       0.29406101      -0.38023081
