8
Properties=species:S:1:pos:R:3 pbc="F F F"
H        0.00000000       0.00000000       0.00000000
H        0.69739223       0.29845181      -0.69129914
H        0.02887994       0.96869779      -1.08776557
H        0.47580057      -0.47291669      -1.33099580
H       -0.73945600       0.58582085      -0.40415666
H       -0.97986400      -0.12325907      -1.02662802
H       -0.25872287       0.19732928      -1.70062709
H       -0.29458672      -0.78667372      -0.64383709
