8
Properties=species:S:1:pos:R:3 pbc="F F F"
H        0.00000000       0.00000000       0.00000000
H        0.36329272       0.89468008       0.34769225
H        0.42808345       0.19475858      -0.91221571
H        1.36018682      -0.17109351      -0.68713939
H        0.72518486       1.08854938      -0.66537625
H        0.88656050      -0.49504808       0.14920373
H        1.24258685       0.35375103       0.46676672
H        1.61215591       0.60439461      -0.39848316
