8
Properties=species:S:1:pos:R:3 pbc="F F F"
H        0.00000000       0.00000000       0.00000000
H        0.19410905      -0.89379078       0.33394706
H       -1.01400745      -0.12438690       0.09818678
H       -0.79309928      -1.05179381       0.47823927
H        0.06381274       0.34709048       0.90747839
H       -1.01400745       0.22270358       1.00790596
H       -0.90117353      -0.71940011       1.39910030
H        0.05765694      -0.56791931       1.32321537
