21
Properties=species:S:1:pos:R:3 pbc="F F F"
H        0.00000000       0.00000000       0.00000000
H       -0.92501378       0.29845181       0.32954502
H       -0.22925681      -0.90665692       0.27106357
H       -1.09704828      -0.59134841       0.58022261
H        0.18526685      -0.74698800       1.19626617
H       -0.57641006       0.45812076       1.28154564
H       -0.81471527      -0.46696150       1.55906868
H        0.03823924      -0.70405674       1.30491865
H        0.32997841       0.15966895       0.90377545
H        0.02229202      -0.66124988       1.43326783
H       -1.22245455      -0.15739432       2.26054716
H        0.22044787      -1.18787801      -0.41656679
H       -0.46930534      -0.54962736       2.44241118
H       -1.10336113       0.18697315       3.38730431
H       -1.10113704       0.10754439       3.40834665
H       -1.10217655       0.14744246       3.39851117
H       -1.05974090       0.06732711       3.41179800
H       -1.10336113       0.18697315       3.38730431
H       -0.98116350       0.10754439       3.38923693
H       -1.10113704       0.10754439       3.40834665
H       -1.10113704       0.10754439       3.40834665
