8
Properties=species:S:1:pos:R:3 pbc="F F F"
H        0.00000000       0.00000000       0.00000000
H        0.73469222      -0.22961354      -0.67884368
H        0.43551055      -0.63587439       0.59502536
H        0.50811565       0.73181123       0.39285091
H        1.16120398      -0.83951360      -0.05101359
H        0.94847631       0.11778629       0.93696481
H        1.29800057       0.54175496      -0.30334622
H        1.69971001      -0.11932766       0.28797454
