8
Properties=species:S:1:pos:R:3 pbc="F F F"
H        0.00000000       0.00000000       0.00000000
H        0.05110265      -0.33235219      -0.96966726
H        0.67411071      -1.07976067      -0.64322364
H        0.67411071      -0.67039871       0.24022627
H        1.45668507      -0.58078098      -0.93760037
H        0.82804388       0.16662753      -1.25305986
H        0.82660657       0.55622131      -0.24629925
H        1.42690277      -0.22278377      -0.08949137
