21
Properties=species:S:1:pos:R:3 pbc="F F F"
H        0.00000000       0.00000000       0.00000000
H        0.93511528      -0.39891118      -0.14054634
H        0.96538490      -0.95513248       0.72144288
H        0.54491985      -1.17027974      -0.69377512
H        0.61275035      -1.66805470       0.25697693
H       -0.02871744      -0.52769721       0.81778473
H       -0.46377745      -0.77136850      -0.49317852
H        0.40985999      -1.18073046      -0.62448484
H       -0.26151615      -1.24201727       0.20805976
H       -1.64095128      -0.39879021      -1.24837554
H       -1.65112567      -0.44755453      -1.25490284
H       -1.68606162      -0.49670896      -1.21806371
H       -1.68606162      -0.49670896      -1.21806371
H       -1.65112567      -0.44755453      -1.25490284
H       -1.66717219      -0.54619431      -1.26519728
H       -1.65112567      -0.44755453      -1.25490284
H       -1.65986955      -0.49670896      -1.26051235
H       -1.67712629      -0.44755453      -1.21276450
H       -1.65986955      -0.49670896      -1.26051235
H       -1.65112567      -0.44755453      -1.25490284
H       -1.65986955      -0.49670896      -1.26051235
