15
Properties=species:S:1:pos:R:3 pbc="F F F"
H        0.00000000       0.00000000       0.00000000
H       -0.49101692      -0.19475858      -0.87994057
H        0.07288510       0.55264992      -1.30032015
H       -0.64284182       0.68549418       0.25478023
H       -1.07563353       0.56110728      -0.66746867
H        0.55881035       0.63587439      -0.48109838
H       -0.59755206       1.30005836      -1.08767378
H       -0.14864156       1.42444527      -0.17316240
H        0.53355718       0.70189738      -0.42978141
H       -0.19535004       1.83538842       0.26875097
H       -1.10418928       2.16774058      -0.07312214
H       -0.99541706       1.48224640      -0.75600362
H       -0.52165073       1.14989424       0.87841183
H       -1.40451014       1.46520281       0.61535144
H       -1.33988547       0.82932842      -0.11918807
