8
Properties=species:S:1:pos:R:3 pbc="F F F"
H        0.00000000       0.00000000       0.00000000
H       -0.27385142       0.28314662      -0.89044607
H       -0.68959934      -0.59670103      -0.92334968
H       -0.34650370      -0.90665692      -0.07726128
H        0.49442670      -1.15730047      -0.49925023
H        0.18379962      -0.93946195      -1.39597654
H        0.81119901      -0.23886985      -0.43443221
H        0.55585778      -0.04567116      -1.29218984
