16
Properties=species:S:1:pos:R:3 pbc="F F F"
H        0.00000000       0.00000000       0.00000000
H        0.14728610      -1.02954066      -0.28719354
H        0.90883923       0.33235219      -0.34187314
H        1.02990568      -0.69718850      -0.69197559
H        1.49788308      -0.96138036       0.18239486
H        1.31783557       0.10273865       0.57099247
H        0.40495694      -0.19571316       0.93279755
H        1.47336054      -0.86533678       0.26773387
H        1.24226367       0.37611318       1.10568738
H        0.80236894       1.20784426       1.35624087
H       -0.10537726       0.74429619       1.47642326
H        0.30017692      -0.16729647       1.23590624
H        0.06431688       0.72557026       0.41106868
H        0.89219469       1.26126015       0.33525991
H        1.32434249       0.33385324       0.25470832
H        0.66495335      -1.34484911       0.47481835
