8
Properties=species:S:1:pos:R:3 pbc="F F F"
H        0.00000000       0.00000000       0.00000000
H        0.12256700       0.83228827       0.37498182
H       -0.68477142      -0.12438690       0.75428098
H        0.74009603      -0.26419187       0.66013968
H        0.04803616      -0.42283872       1.40791965
H        0.83912915       0.54914165       0.97032005
H        0.11928526       0.54523671       1.74120235
H       -0.57810706       0.84368849       1.04990339
