21
Properties=species:S:1:pos:R:3 pbc="F F F"
H        0.00000000       0.00000000       0.00000000
H       -0.21671417       0.94706190      -0.06457304
H       -0.95501620      -0.19475858      -0.32146075
H        0.10040161       0.96578783      -1.09569585
H        0.29186592       0.01145047      -1.07034659
H       -1.25066566       0.74231571      -0.29511723
H       -0.68797672      -0.17694612      -1.31226671
H        0.30128327       0.05341591      -0.97964233
H       -0.53239685      -0.90660816       0.99473137
H       -0.53239685      -0.90660816       0.99473137
H       -0.63400412      -0.90660816       0.93326080
H       -0.53239685      -0.90660816       0.99473137
H        0.20654535      -0.89153606       1.45068347
H        0.20654535      -0.92168027       1.45068347
H        0.20654535      -0.89153606       1.45068347
H       -0.20855254      -0.91528600       1.19577873
H        0.22118247      -0.86141008       1.42395210
H       -0.19960171      -0.89793032       1.18068600
H        0.26781803      -0.89062262       1.45051467
H       -1.21438813      -0.91985333       0.65250003
H        0.34436280      -0.95454550       1.27281833
