8
Properties=species:S:1:pos:R:3 pbc="F F F"
H        0.00000000       0.00000000       0.00000000
H        0.68725604      -0.43977645       0.53135377
H        1.10300398       0.44007120       0.49845016
H        0.39471132       0.84943318      -0.02956998
H        1.62459922       0.24531262      -0.36371648
H        0.87640780       0.61116469      -0.96345454
H        1.17935061      -0.61953175      -0.32060286
H        0.52159530      -0.19475858      -0.86216664
