12
Properties=species:S:1:pos:R:3 pbc="F F F"
H        0.00000000       0.00000000       0.00000000
H        0.97460508       0.08895500       0.30912116
H       -0.31766176       0.08895500       0.97185487
H        0.01959673       0.96046287      -0.15870699
H        0.67983025       0.10676746       1.21272063
H        0.95394909       1.10133469       0.14183542
H       -0.37790421       1.00580013       0.90779334
H        0.55644381       1.09019339       1.16843224
H       -0.26376241       1.04941785       0.82369745
H        0.67298281       1.26100361       1.11594403
H       -0.60894567       0.27496868      -0.44696561
H       -0.90777218       0.42644948       0.46726474
