18
Properties=species:S:1:pos:R:3 pbc="F F F"
H        0.00000000       0.00000000       0.00000000
H        0.05739931      -0.52769721       0.81627315
H        0.36690205       0.83756196       0.46604359
H        0.25835395       0.34899217       1.31059778
H       -0.66946954       0.59963572       1.46674609
H       -0.99411505      -0.23792624       0.97034001
H       -0.99564397       0.22961354       0.09640864
H       -0.92902946      -0.29808366       0.98228443
H       -0.57389158       1.05540049       0.59060133
H        0.46231565      -0.95381522       0.96052855
H        1.10052013      -0.67066860       0.28186530
H        0.89093649      -0.48415419       1.69793177
H        0.46102166       0.03841132       0.09131773
H        0.13270998       0.15871337       1.44271088
H        1.25675035       0.06114262       0.90484637
H        0.54226661       0.56031561       0.60705924
H       -0.38670841      -0.33795220       0.70754987
H        0.90888357      -0.56158221       0.32737345
