8
Properties=species:S:1:pos:R:3 pbc="F F F"
H        0.00000000       0.00000000       0.00000000
H       -0.30820453      -0.91843063       0.09775501
H        0.85205191      -0.33235219      -0.46569690
H       -0.33184263      -0.15966894      -0.95797193
H        0.40832826      -0.28167555      -1.33091497
H        0.47901171      -1.29688478      -0.33250538
H        0.04788670      -1.23734081      -1.23036873
H       -0.78201914      -0.86775398      -0.75135773
