11
Properties=species:S:1:pos:R:3 pbc="F F F"
H        0.00000000       0.00000000       0.00000000
H       -0.37664786      -0.36585209      -0.88182342
H       -0.53625453       0.77460212      -0.24593407
H       -0.96674275       0.36524016      -1.01740253
H        0.73763072       0.37845421      -0.51062149
H        0.26070157       1.25514364      -0.74995017
H       -0.28686959       0.74369437      -1.60272789
H       -0.09168413       0.87668943      -1.57497001
H        0.37154374       0.00000000      -1.48156118
H        0.47529995      -0.00615954      -1.48395705
H       -0.86181402       0.46587893      -1.02638555
