8
Properties=species:S:1:pos:R:3 pbc="F F F"
H        0.00000000       0.00000000       0.00000000
H        0.88292891      -0.28314662      -0.29719594
H        0.88292891      -0.83936793       0.56532466
H        0.00000000      -0.58319080       0.77971113
H        0.35537001       0.12588912       1.34449315
H        1.26226854      -0.10755670       1.08360529
H        1.30330336       0.47563410       0.30497468
H        0.40782309       0.79094261       0.52120739
