8
Properties=species:S:1:pos:R:3 pbc="F F F"
H        0.00000000       0.00000000       0.00000000
H        0.17388797      -0.66108263       0.69339287
H        0.01254583      -0.66108263      -0.71475405
H        0.13687186      -1.40849113      -0.00898468
H        1.05579090      -1.36055374      -0.04933003
H        1.08223474      -0.66373700       0.70371115
H        0.98604590      -0.64418364      -0.72329712
H        1.01162505       0.07836425       0.00512177
