8
Properties=species:S:1:pos:R:3 pbc="F F F"
H        0.00000000       0.00000000       0.00000000
H       -0.67230010      -0.60990006       0.35227177
H       -1.24200368       0.20657235       0.60153967
H       -0.22012398      -0.62771249       1.27343595
H       -0.52083373       0.82128692       0.20737749
H        0.53672719      -0.07149118       0.85977185
H       -0.76618958       0.12594819       1.55956340
H        0.01415884       0.70311093       1.13358712
