8
Properties=species:S:1:pos:R:3 pbc="F F F"
H        0.00000000       0.00000000       0.00000000
H        0.44047090       0.80291802      -0.09821343
H        0.16085222       0.31530851       0.90706563
H        0.81800526      -0.52769721       0.02153999
H        0.58235037       0.96258694       0.90562916
H        1.32092786       0.27696645      -0.13687010
H        1.02068412      -0.24091280       0.83901578
H        1.44404078       0.40636563       0.86779642
