11
Properties=species:S:1:pos:R:3 pbc="F F F"
H        0.00000000       0.00000000       0.00000000
H        0.50421435      -0.31530851      -0.77097952
H        0.63719434      -1.30572534      -0.36414018
H        0.74434412       0.25064358       0.57549155
H        0.13179076      -1.08788681       0.43908736
H        0.02583965      -0.14578313       0.04597309
H        0.15278786      -0.31653911       0.04066935
H        0.46412230      -1.59367585       0.44783843
H        0.46412230      -1.59367585       0.44783843
H        0.46412230      -1.59367585       0.44783843
H        0.44637477      -1.60490870       0.44737110
