21
Properties=species:S:1:pos:R:3 pbc="F F F"
H        0.00000000       0.00000000       0.00000000
H       -0.12270200      -0.91159266      -0.45526573
H       -0.89749557       0.36585209      -0.33760604
H       -0.93105894      -0.59628415      -0.89708084
H       -0.95595962      -0.48294702      -0.81108570
H       -1.16983676      -0.44278786      -0.49912009
H       -1.47949696       0.11520851       0.40165916
H       -2.20435309       0.69839931       0.68894446
H       -1.57892632      -0.81219840      -0.02653950
H       -2.59966969       0.31994510       1.49427557
H       -1.84139895      -0.28995496       1.46098351
H       -1.55705333       0.14982149       0.64012718
H       -1.36750245      -1.15686011       2.51870394
H       -1.98634338       0.93465966       2.04134107
H       -0.94881803       0.84736145       0.02551678
H       -1.46450257      -1.23517370       2.49024820
H       -1.36750245      -1.15686011       2.51870394
H       -1.34405553      -1.07436967       2.57103682
H       -1.35548639      -1.11611271       2.54552388
H       -1.46450257      -1.23517370       2.49024820
H       -1.44286418      -1.15686011       2.54934025
