5
Properties=species:S:1:pos:R:3 pbc="F F F"
H        0.00000000       0.00000000       0.00000000
H       -0.39122835      -0.01598554      -0.83368021
H        0.44646356       0.55622131      -0.73797834
H       -0.37836841       0.98771089      -0.30578297
H       -0.18345781       0.89560711      -0.41041428
