11
Properties=species:S:1:pos:R:3 pbc="F F F"
H        0.00000000       0.00000000       0.00000000
H        0.05739931      -0.52769721       0.81627315
H        0.37439200       0.46354809       0.83563006
H       -0.70150650       0.33235219       0.67138261
H       -0.39700210       1.04143214       0.07762873
H        0.08870187       1.62725306      -0.61101449
H       -0.92433423       0.91704524      -0.79402065
H        0.39372081       0.64793390      -0.64596283
H       -0.06767094       0.47726879      -0.64984846
H        0.74518359       1.37660944       0.06298143
H        0.87002808       1.25222254      -0.94809014
