21
Properties=species:S:1:pos:R:3 pbc="F F F"
H        0.00000000       0.00000000       0.00000000
H       -1.30668461      -0.33558905      -0.65570974
H       -0.34089965       0.53470695       1.35936594
H        1.08004737      -0.48073912      -0.36354646
H        1.66061306       0.01430896       0.32288989
H       -0.30743492      -0.31409216       1.83526635
H       -0.07011664       0.06138885      -0.57793486
H        1.08682084       0.67749345       0.78091174
H       -0.01786939       0.21479836       0.50886548
H       -0.74884784       0.55667073       2.59467721
H        0.08022632      -0.27616930      -0.64972448
H       -0.47567415       0.25023180      -0.51585484
H        0.29677188       0.30077395       0.06275925
H        0.54115450       0.12584490      -0.45331460
H        0.51296347      -0.01396006      -0.59409881
H       -0.81656772      -0.00857943       2.16952562
H        0.14235079       0.27051508       0.49334306
H        0.18906179      -0.65957630       1.81346750
H        0.15622246       0.79912603       1.91647708
H        0.98191601       0.75084984       1.37248349
H        0.37488937       0.78184062       1.45413387
