5
Properties=species:S:1:pos:R:3 pbc="F F F"
H        0.00000000       0.00000000       0.00000000
H       -0.33687106      -0.48241162       0.39830211
H        0.62947482       0.15896323      -0.28868622
H       -0.18957165      -0.69086128      -0.49084449
H        0.51477802      -1.71668577      -0.15273467
