20
Properties=species:S:1:pos:R:3 pbc="F F F"
H        0.00000000       0.00000000       0.00000000
H        0.52815789      -0.26419187       0.83939010
H       -0.27763951       0.92909771       0.08806052
H        0.03516924       1.27618814       0.94230855
H       -0.73685467      -0.55166692      -0.03235182
H       -1.24672592       1.01349092       0.04551250
H       -1.55953467       1.36058140       0.89976060
H       -0.73685467      -1.13485765       0.74735934
H       -2.06765032       0.62877017       1.29261160
H       -1.60534739       0.05782562      -0.06134384
H       -2.11075091      -0.16001287       0.74188370
H        0.46608087       0.56710821       1.45180035
H       -1.58814192      -0.90524411       1.27263224
H       -0.76817459       1.59019494       1.51160264
H       -1.59074664       0.41093168       2.11308098
H       -0.03246480      -0.98673975       1.30516970
H       -1.28714204      -0.56838751       2.06744981
H       -0.01200360       0.36104476       2.21161008
H       -0.31394190      -0.55148852       2.09307647
H       -0.79277295       0.96671045       2.16216040
