20
Properties=species:S:1:pos:R:3 pbc="F F F"
H        0.00000000       0.00000000       0.00000000
H       -0.46163812      -0.66108263       0.54582143
H        0.74647850       0.37845421       0.49759740
H       -0.37581238      -1.52592707       0.10680094
H        0.10959432      -2.14064169       0.76999795
H        0.97982442      -2.40483356       0.29436558
H        0.02258715      -0.67889506       1.45054936
H        1.77230811      -1.97334397       0.78335464
H        0.74647850      -0.11659387       1.39662528
H        1.58101165      -0.61557359       1.44795334
H        0.33502385      -0.46966103      -0.78437138
H        0.37267679      -1.58555198       1.50946772
H        1.39724636      -1.53213608       1.53644705
H        2.24872780      -1.27652717       0.19957840
H        2.05425858      -0.50394428       0.66570389
H        0.15343669      -1.43697202      -0.76801693
H        1.61670852       0.11426234       0.02196503
H        1.02883196      -1.97334397      -0.63554782
H        1.30555451      -0.41898438      -0.72467875
H        1.76549911      -1.33746958      -0.66789138
