20
Properties=species:S:1:pos:R:3 pbc="F F F"
H        0.00000000       0.00000000       0.00000000
H       -0.29363519      -0.58319080       0.72230726
H        0.41541493       0.74740851       0.56756932
H       -0.78411812       0.28314662      -0.50303847
H        0.34835643       0.56263757       1.52120638
H       -0.84759551       1.29552627      -0.34689170
H       -1.56551933      -0.18651441      -0.16114452
H       -1.76601100       1.41991317       0.09397659
H       -0.26414436       1.24813175       1.84214449
H       -2.20997787       0.47456822       0.14821589
H       -0.09230036       1.59397805       0.28062689
H       -1.33197713      -0.77233529       0.64854419
H       -1.06000805       0.80835533       2.19036627
H       -1.76989377      -0.47407049       1.40193987
H       -1.82619965       1.10680711       1.57619953
H       -2.36394358       0.29729801       1.07725632
H       -1.03241253      -0.12467459       2.10775232
H       -0.13178134      -0.31943315       1.65580487
H       -0.49334544       1.83132255       1.09688187
H       -1.43636131       1.74967468       0.87757856
