21
Properties=species:S:1:pos:R:3 pbc="F F F"
H        0.00000000       0.00000000       0.00000000
H        0.13252793       0.60990006       0.74734145
H       -0.52155960       0.55622131      -0.68696243
H        0.05004197       0.82041317      -1.49739337
H        0.35676104       1.79973233      -1.51085997
H        0.93011481      -0.19475858      -0.38765898
H        0.92372316       0.29446161      -1.38172102
H        1.66084456       0.93033600      -1.36231089
H       -0.68368959       1.46781397      -0.24420229
H        2.14126015       0.74556506      -0.53579926
H       -0.07979292       2.23950887      -0.75980860
H       -0.64041561       1.51696098      -0.29402903
H        0.33774984       0.83088088      -1.81878591
H       -0.27891624       1.53730702       0.59257072
H        0.73947310       2.51999736       0.28912702
H        0.73947310       2.51999736       0.28912702
H        0.73947310       2.51999736       0.28912702
H        0.73947310       2.51999736       0.28912702
H        0.73947310       2.51999736       0.28912702
H        0.77154458       2.48252583       0.27957091
H        0.73947310       2.51999736       0.28912702
