21
Properties=species:S:1:pos:R:3 pbc="F F F"
H        0.00000000       0.00000000       0.00000000
H        0.54069358       0.79439902       0.36042264
H       -0.06962043       1.56576753       0.65339255
H        0.13145566       1.71724832       1.59396839
H        1.11419463       0.46204683       1.14398026
H       -1.03495622       1.26731575       0.47345582
H        0.87765384      -0.46705088       1.31394148
H        0.83282447       0.98974407       1.91237307
H        0.15126249      -0.81647241       0.60317194
H       -0.73774135       1.48763478       2.08904219
H       -0.54620761       0.73397410       2.67502117
H       -1.03590715       0.00124240       2.40737128
H       -1.57336926       0.29969421       1.58555341
H       -1.37383199       1.22879195       1.37336659
H        0.39517799      -0.55600590       2.21540022
H       -1.00110364       0.37352496       0.08867931
H        0.39467496       0.40655327       2.55733395
H       -0.43950397      -0.70783752       2.10808897
H       -0.73477340      -1.04608595       1.06743693
H       -1.42716873      -0.26934260       0.76581579
H       -0.63401711      -0.86750644       1.11310434
