20
Properties=species:S:1:pos:R:3 pbc="F F F"
H        0.00000000       0.00000000       0.00000000
H        0.41703188       0.87984765      -0.00365971
H        0.69151276      -0.55622131      -0.51551127
H       -0.83735520       0.01689900      -0.49660000
H        1.44031549       0.08664626      -0.79718435
H        1.42232811       0.14006217      -1.82195127
H        1.26191044       0.99330318      -0.49025473
H       -1.01376927       0.98497444      -0.78820229
H       -0.25858748       1.46566844      -0.50732255
H        0.27112934      -0.87152982      -1.33521807
H       -0.70479798      -0.56892186      -1.32880569
H        1.23816633       1.06915987      -2.04761219
H       -1.03085470       1.00187349      -1.76158988
H        1.16119456       1.60801768      -1.30591786
H       -0.26162040       1.61658812      -2.05094862
H       -0.86884999       0.09521657      -2.07748318
H        0.28815448       1.93034518      -1.17720318
H        0.71359563      -0.44312865      -2.14698625
H        0.01376754       0.11302903      -2.60092640
H        0.33880752       1.12257576      -2.53916526
