20
Properties=species:S:1:pos:R:3 pbc="F F F"
H        0.00000000       0.00000000       0.00000000
H        0.79402828      -0.31375703       0.65969908
H        1.59159446      -0.39815024       0.10758764
H        0.55707932      -1.22534966       1.06734824
H        1.37298417      -0.28014213      -0.83387107
H        0.39408267       0.01830968      -0.91134441
H        1.84959280      -1.32724798       0.24277353
H        1.20648265      -1.82622766       0.77708578
H       -0.36200839      -1.52380145       0.72161996
H        0.74564064      -2.54877567       0.21239734
H        1.80309844      -1.73660994      -0.63945210
H        1.54764509      -1.15683150      -1.33808661
H       -0.69895828      -0.83830726       0.11777949
H        1.12676072      -2.50797844      -0.66914690
H        0.69242328      -1.40747511      -1.73030365
H       -0.25154191      -2.31916213       0.13347717
H       -0.06675935      -0.70423818      -1.47603285
H       -0.46619320      -2.10132360      -0.79093188
H        0.46730065      -2.25627422      -1.30968404
H       -0.75826389      -1.19928622      -0.90151328
