20
Properties=species:S:1:pos:R:3 pbc="F F F"
H        0.00000000       0.00000000       0.00000000
H        0.59380746      -0.49897972      -0.58861941
H        0.36755341      -0.26936617      -1.56299639
H       -0.66031027       0.49504808      -0.61011606
H        0.03119412      -1.06376517      -2.11897874
H       -0.40941226       0.40087977      -1.54253709
H        0.07443795      -1.81742585      -1.50401020
H        0.37951964      -1.51897407      -0.57064241
H       -0.92965293      -0.90409625      -2.44240212
H       -0.88817489      -2.14977813      -1.37656367
H       -0.38074118      -1.64336097       0.10748386
H       -1.15602911      -2.03176999      -0.44791460
H       -1.45119560      -1.53506351      -1.97527695
H       -1.62292314       0.16269588      -0.48266953
H       -1.19897008      -0.02424860      -2.12397289
H       -1.60011840      -0.63170314       0.16674095
H       -1.93678737      -0.20315620      -1.38874102
H       -0.61288476      -0.68511903       0.44213250
H       -1.92476392      -1.46926510      -0.32966515
H       -2.11316490      -1.17081332      -1.29338467
