21
Properties=species:S:1:pos:R:3 pbc="F F F"
H        0.00000000       0.00000000       0.00000000
H       -0.92501378       0.29845181       0.32954502
H       -0.06202696      -0.99825430      -0.23014089
H        0.12340876      -1.11626244      -1.17869163
H        0.26201248      -0.20466977      -1.62937069
H       -1.59448385      -0.47291669       0.22892469
H       -1.14651155       0.99526858      -0.39066958
H       -0.45365065       1.10689783      -0.98717654
H        0.15656275       0.49214697      -0.88328040
H       -1.07108283      -1.28938913      -0.10685503
H       -0.44013619      -0.01989880      -2.27814484
H       -0.74891186      -1.53563058      -1.65546668
H       -1.45973265      -1.66001749      -0.92568213
H       -2.17907572      -1.05011749      -1.16781473
H       -1.07910168      -0.86538464      -2.35907793
H       -2.28452539      -0.35330075      -0.42172444
H       -2.08700347       0.54137933      -0.88417077
H       -2.00817156       0.69681680      -0.86161798
H       -0.95421588       0.77450025      -1.88068271
H       -1.87290215       0.49135363      -1.72607219
H       -1.89697111       0.07352781      -1.99964535
