20
Properties=species:S:1:pos:R:3 pbc="F F F"
H        0.00000000       0.00000000       0.00000000
H        0.17388797      -0.66108263       0.69339287
H       -0.04571859      -0.43977645      -0.86750644
H        0.15075311      -1.58848953       0.25441104
H        0.10263717      -1.47686028      -0.65858489
H       -0.65108669      -2.14471078       0.57220763
H       -0.91999018      -0.28829566      -1.26846004
H       -1.47698045       0.26792565      -0.60989833
H       -2.31275916      -0.22712243      -0.27865058
H       -0.72068280      -1.91663671      -0.93571639
H       -1.36878490      -1.21982002      -1.32007837
H       -2.17962551      -1.16640413      -0.69317466
H       -1.25553274      -2.32948184      -0.16844457
H       -0.91829020       0.43148959       0.15454386
H       -0.67995864      -0.64327019       1.26256108
H       -1.17430735      -1.53795028       1.17041540
H       -2.03396916      -1.38646948       0.73902696
H       -2.04864287      -1.88544917      -0.09695441
H       -1.28673267       0.04222399       0.93092299
H       -2.20567799      -0.35150933       0.73445624
