21
Properties=species:S:1:pos:R:3 pbc="F F F"
H        0.00000000       0.00000000       0.00000000
H        0.54628479      -0.64623839      -0.66938484
H        0.80149937      -0.06304759      -1.40614462
H        0.33000648       0.84854507      -1.41028214
H       -0.19003795       0.86484438      -0.40495756
H       -0.24663275       0.86635751      -0.56146306
H        0.10967565      -1.51108277      -0.76673728
H        1.00870514       0.86270368      -0.95786631
H       -0.79428029      -1.46040618      -0.40846860
H       -1.44231045      -1.51382208      -1.20252633
H       -1.94853640      -0.68209106      -1.20696867
H       -1.74142528      -0.21854296      -2.09890604
H       -0.91497827      -1.63820899      -2.07417560
H        0.02275789      -1.62131000      -1.81259155
H       -1.16622722      -0.82844305      -2.59411311
H       -0.29471064      -0.30249149      -2.72510076
H       -1.32377517       0.69304967      -1.88006580
H       -0.38001209       0.60409468      -2.27341318
H        0.45335120      -0.79753959      -2.22644782
H       -1.22181606       0.77744287      -0.91541916
H        0.16006613       0.90289223      -1.32717073
