21
Properties=species:S:1:pos:R:3 pbc="F F F"
H        0.00000000       0.00000000       0.00000000
H        0.49089283       0.77460212       0.32722577
H       -0.14838916       1.50641334       0.38912773
H        0.20629016       2.17665935      -0.30246234
H       -0.97557962       0.29845181      -0.11177987
H        0.39577049      -0.28314662      -0.84335905
H        1.20130885       1.00421572      -0.37698337
H       -0.31840342      -0.23246998      -1.50324428
H        1.11318779       0.38709933      -1.14236867
H        1.06795025       1.87820756      -0.77341068
H       -1.20600665       0.17406490      -1.10412812
H        0.00781390       0.42861265      -2.13933611
H        0.84891278       0.88214743      -2.00167656
H       -0.47680303       2.32814026      -0.97958720
H       -0.04373989       2.11030173      -1.82401800
H        0.87249106       1.75382066      -1.77323437
H       -1.18706322       1.69226587      -0.78145802
H       -1.42188168       1.05391252      -1.46095717
H       -0.57514751       1.14153481      -2.12398529
H       -1.07904387       1.20796156       0.07586712
H       -0.57860255       1.29382932      -2.14122248
