21
Properties=species:S:1:pos:R:3 pbc="F F F"
H        0.00000000       0.00000000       0.00000000
H       -0.02481474      -0.91159266      -0.47085762
H        0.80713278       0.08439321       0.53802919
H       -0.82827353      -1.38125372      -0.18461773
H        0.73917973      -1.46781397      -0.07053998
H        0.42347676       0.20878011       1.48177695
H        1.30997682      -0.81028688       0.53361642
H       -0.60046154       0.26219600       1.43682063
H       -1.34954643      -0.79543287       0.47750941
H        0.37506923      -2.22147465       0.42693365
H       -0.56097698      -2.23959661       0.41197887
H       -1.00030589      -0.50917250       1.98311639
H       -0.91127616      -2.11520982       1.36860955
H        0.65842855      -2.13251972       1.40933800
H       -0.93230414       0.10252707       0.47884870
H       -1.49727690      -1.12388706       1.32854033
H       -0.28926551      -1.03686976       2.38810802
H        0.64565241      -0.56582201       2.02830267
H       -1.02665520      -2.03547978       1.35748601
H        0.60316449      -0.60538018       2.12219572
H       -0.39719921      -2.16327953       2.38336921
