20
Properties=species:S:1:pos:R:3 pbc="F F F"
H        0.00000000       0.00000000       0.00000000
H        0.38154608      -0.49897972      -0.74397767
H       -0.17729433      -0.72254789       0.70697600
H        0.48297584      -0.63359290       1.48765159
H        1.15704167       0.11381561       1.28680408
H        0.98220080      -1.46532393       1.57166862
H        0.76599729       0.49897972       0.33515418
H        1.91262174      -1.21468031       1.43182778
H       -0.09727874      -1.60239553       0.29767600
H        0.32702559      -1.51659620      -0.62228978
H        1.24735641      -1.83190465      -0.66269714
H        0.70874870      -2.07522392       0.86363840
H        2.10174990      -0.28509557       1.24532640
H        2.25879359      -1.74063182       0.62135637
H        1.31448066      -0.28114122      -0.91787505
H        1.86894250      -1.10009336      -0.82438821
H        1.49879622      -2.23961163       0.27281061
H        2.49911785      -0.97570646      -0.02393156
H        1.58258581       0.30204958      -0.18570769
H        2.26984191      -0.13772687       0.34564608
