21
Properties=species:S:1:pos:R:3 pbc="F F F"
H        0.00000000       0.00000000       0.00000000
H       -0.13959605      -0.55577880       0.78719991
H        0.70808405      -0.68016571       1.35225761
H        0.61522418      -0.27080375       2.23081374
H        1.35856080      -0.15442902       0.96648735
H       -0.52394933       0.81366080       0.10721069
H        1.69876897       0.61693949       1.55178475
H       -0.85518759      -0.18992671       1.42548275
H        1.23169410       0.54566866       2.31243229
H        0.93128264       0.28314662       0.02452285
H        0.68039548       1.34027886       2.42523909
H        0.09137511       1.56732154       0.14505632
H       -1.09925425       0.72166598       1.02205479
H        1.39323366      -0.17047065       0.88763350
H        0.48581603       0.55974257       0.42186359
H        0.22580242       0.72292304       0.53143036
H        1.26480985       0.52359527       2.24791884
H       -0.24861860      -0.38881186       1.79732728
H       -0.23287344      -0.38881186       1.76727796
H        1.11366582      -1.06541395       2.49198699
H        1.11366582      -1.06541395       2.49198699
