20
Properties=species:S:1:pos:R:3 pbc="F F F"
H        0.00000000       0.00000000       0.00000000
H       -0.41358426      -0.01689900      -0.88131911
H        0.82182598       0.61471456      -0.00721203
H        0.69202739       1.49140394       0.51037079
H       -0.63214743       0.61471456       0.52520424
H       -1.38647676       0.86535811      -0.03713542
H       -0.16309312       1.47235703       0.83787262
H       -1.37832940       1.83459437      -0.12974037
H        0.21370181       0.44664910      -1.54837179
H        0.93089420       0.85180986      -0.89051706
H        0.77073574       2.22321510      -0.12706023
H        0.84751832       1.81724095      -0.98565912
H        0.06723249       2.03507948      -1.52580833
H       -0.62427205       2.53012753      -0.95128876
H       -0.14461446       2.68676329      -0.10295698
H       -1.17259121       0.46644694      -0.95824713
H       -0.68454969       2.18778348       0.53543949
H       -0.32502669       1.18628037      -1.79734802
H       -1.47933102       1.97390628      -0.83808196
H       -1.09638560       1.28291941      -1.57540953
