20
Properties=species:S:1:pos:R:3 pbc="F F F"
H        0.00000000       0.00000000       0.00000000
H        0.36925858       0.05341591      -0.95609558
H       -0.46352738      -0.91159266      -0.08640061
H       -0.75546783       0.60990006       0.07315227
H       -1.47346449      -0.78720576       0.04731147
H       -1.59646404       0.17325711       0.14950266
H       -1.91104066      -1.15305781      -0.80591959
H       -0.32240853      -1.29004693      -0.97235709
H       -2.33003163      -0.37845570      -1.22124970
H       -2.16806555       0.43744898      -0.66092825
H       -0.77025706       1.19572091      -0.76941466
H        0.22958568      -0.61980098      -1.51952863
H       -1.65187001       1.13426566      -1.20984769
H       -0.10200092       0.86988831      -1.36181867
H       -1.18625128      -1.40805507      -1.40584362
H       -0.31270298      -0.36915740      -2.28839898
H       -0.49622810       0.63676560      -2.20030117
H       -1.17736912      -0.80893385      -2.20467305
H       -1.89111578      -0.22697490      -2.07709265
H       -1.50532770       0.79643452      -2.10258961
