20
Properties=species:S:1:pos:R:3 pbc="F F F"
H        0.00000000       0.00000000       0.00000000
H       -0.47398776      -0.23709527       0.75329894
H       -1.01697135       0.62054718       0.90476584
H       -0.09504665       0.91843063      -0.30905050
H       -0.72259003       1.32516479       0.14254475
H       -0.28580785       2.11956382       0.62366366
H       -0.25022849       1.95989490       1.63685846
H        0.96664900      -0.01781246       0.34437817
H        0.78137994       1.82912922       1.92462850
H        0.76584715       1.47465193      -0.25610107
H        0.68673605       2.13737631       0.29630309
H        0.93309891      -0.20258343       1.29978120
H        1.25481272       1.98589551       1.07244956
H       -0.67161667       1.09505057       1.78698206
H        1.47998857       0.85993737       0.15065682
H       -0.02568281       0.48515052       2.18554497
H        1.75871253       1.23839164       1.00338554
H        1.36988115       0.59181559       1.78090012
H        0.10420561      -0.28621799       1.52113271
H        0.67837662       1.08686364       2.35541964
