21
Properties=species:S:1:pos:R:3 pbc="F F F"
H        0.00000000       0.00000000       0.00000000
H        0.63772744       0.77136850       0.22719663
H       -0.95452821       0.29845181       0.23049112
H       -1.42834282       0.24777517      -0.61862165
H        0.01779249      -0.15966894      -1.01366317
H       -1.71733344       1.16620576      -0.76364052
H        0.75580823       0.51616621      -1.41703260
H       -1.30340707       1.83645177      -0.10579616
H       -1.34776449       1.41684937      -1.62889040
H        0.23617154       1.13088083      -2.05376458
H        0.38732576       2.05828762      -1.64097810
H        0.90392220       1.97389436      -0.81996238
H        0.04553151       1.58229446       0.62195039
H       -0.86817271       1.20510876       0.57484102
H       -0.49697757       2.40537810      -1.42744422
H        1.14194262       1.04386342      -0.69557792
H       -0.89144892       0.06994461      -1.43065441
H        0.35211986       2.27234626      -0.00770348
H       -0.66435188       2.50669765      -0.54817915
H       -1.21111202       1.70856142      -1.66782367
H       -0.50310194       2.52298975      -0.39992055
