21
Properties=species:S:1:pos:R:3 pbc="F F F"
H        0.00000000       0.00000000       0.00000000
H       -0.92830116      -0.43148959      -0.07346868
H        0.55375272      -0.58319080      -0.54891467
H        0.07984662      -1.29227066      -1.01868010
H       -0.01793637       0.96807545      -0.34034115
H        0.19771561      -1.14078987      -1.97325921
H        0.80376434      -0.38712919      -2.08622575
H       -1.49685550       0.25400460      -0.46704781
H        0.63009387       1.02149141      -1.13439870
H       -1.76057124      -0.12444961      -1.32453680
H       -0.93971604       1.11955619      -0.61499846
H        1.66542435      -0.68558097      -2.55717421
H        1.06194639      -0.10398257      -1.19111073
H        0.64721727      -1.97835183      -2.36025023
H       -0.91822338      -1.16788375      -0.81445467
H        2.42200565      -0.52591205      -1.88233018
H       -1.38552904       0.49026495      -2.05583239
H       -0.92384535       1.29433954      -1.51917577
H        0.75374186       0.81444806      -1.09335577
H        0.05603468       1.20538449      -1.81114507
H        0.74725926      -2.63943434      -1.65242100
