21
Properties=species:S:1:pos:R:3 pbc="F F F"
H        0.00000000       0.00000000       0.00000000
H        0.93511528      -0.39891118      -0.14054634
H        0.98963487      -1.06915712       0.63477421
H        1.01536560      -0.86245930      -1.05269051
H        1.08396518      -1.94900477       0.22853443
H        0.19902432      -1.05225813       1.20285010
H       -0.58078772      -0.19475858      -0.82345533
H        0.00036299      -0.72245580      -1.39952862
H       -0.26997328      -1.90105724       1.11542988
H       -1.10884440      -1.71628630       0.65693694
H       -0.42506999      -1.64986277      -1.51019502
H       -1.32402349      -0.75053740      -0.52888554
H        1.13483453      -1.81679666      -0.90093958
H        0.29304749      -2.51577187       0.51671660
H        0.32754087      -2.37301803      -1.20461488
H       -1.23415363      -1.70053935      -0.97086543
H       -1.09337759      -2.24223781      -0.22423255
H        1.03015542      -1.86004972      -0.79250193
H        0.83154553      -1.29630828       0.74275887
H       -0.11314857      -1.97249103      -0.12057185
H        0.33574289      -1.65718246      -0.92502075
