7
Properties=species:S:1:pos:R:3 pbc="F F F"
H        0.00000000       0.00000000       0.00000000
H       -0.78841746      -0.36585209      -0.54577839
H       -0.59476167       0.68549418      -0.35272804
H        0.34068614       0.39891118      -0.88211495
H       -0.43959969       0.61674964      -1.42226422
H       -0.32404169       0.01260212      -1.31336451
H       -0.27724618       0.22376212      -0.92684805
