21
Properties=species:S:1:pos:R:3 pbc="F F F"
H        0.00000000       0.00000000       0.00000000
H       -0.33100656      -0.58582085      -0.77496612
H       -0.03791556       0.14599037      -1.34646499
H        0.56086791      -0.01367857      -0.52836472
H        0.05900192       0.81805247      -0.46191943
H       -0.88730836       0.49538627      -0.78026557
H       -0.79597878       0.32577181      -0.69671351
H        0.46553913       0.02344233      -0.07283971
H        0.15326691       1.35557413      -0.54901874
H        0.42885783      -0.31718141      -1.36695874
H        0.11881988       1.36318016      -0.53017908
H       -0.22315365       0.71280199      -1.27645350
H       -1.48723316       0.68950880      -0.82611305
H       -1.48571014       0.64295042      -0.82665563
H       -1.48266578       0.59647620      -0.82774019
H       -0.82647508       0.45018819       0.08484226
H       -0.82647508       0.45018819       0.08484226
H       -1.60208845       1.54546154       0.07803591
H       -1.60208845       1.54546154       0.07803591
H       -1.60208845       1.54546154       0.07803591
H       -1.60208845       1.54546154       0.07803591
