6
Properties=species:S:1:pos:R:3 pbc="F F F"
H        0.00000000       0.00000000       0.00000000
H        0.63848275      -0.52769721      -0.51179713
H        0.30128327       0.05341591      -0.97964233
H       -0.60932863      -0.19475858      -0.80256563
H       -0.23877388      -0.83063298      -0.16505975
H        0.02490103      -0.83063298      -1.17870045
