8
Properties=species:S:1:pos:R:3 pbc="F F F"
H        0.00000000       0.00000000       0.00000000
H        0.38154608      -0.49897972      -0.74397767
H       -0.13334852      -1.01237965       0.10309879
H        0.56963217      -0.99456722      -0.64444703
H        0.64735299      -0.20883006       0.09087867
H       -0.28467298      -0.22594708       0.25846034
H        0.39398289      -0.43544722      -0.38414690
H        0.00988142      -0.50314945       0.49424484
