7
Properties=species:S:1:pos:R:3 pbc="F F F"
H        0.00000000       0.00000000       0.00000000
H       -0.30820453      -0.91843063       0.09775501
H        0.46377751      -0.77136850      -0.49317846
H       -0.09263443      -0.52595156       0.87642324
H        0.83170784      -0.18817770       0.19426367
H        0.43465889      -1.30055368       0.61182117
H        0.60990572      -1.16749692       0.40654123
