6
Properties=species:S:1:pos:R:3 pbc="F F F"
H        0.00000000       0.00000000       0.00000000
H        0.79402828      -0.31375703       0.65969908
H        0.94606090      -0.19574893      -0.29477519
H        0.05740398      -0.98400295       0.41174957
H        0.30656242      -0.90482885      -0.48532277
H        1.03899443      -1.06449783       0.21565723
