6
Properties=species:S:1:pos:R:3 pbc="F F F"
H        0.00000000       0.00000000       0.00000000
H        0.52815789      -0.26419187       0.83939010
H        0.65128922       0.70907992      -0.14522037
H        1.03598642       0.45843634       0.71341038
H        0.90980291      -0.14329264      -0.00798409
H        0.28922498       0.67445344       0.73980612
