6
Properties=species:S:1:pos:R:3 pbc="F F F"
H        0.00000000       0.00000000       0.00000000
H        0.41703188       0.87984765      -0.00365971
H        0.94376308       0.08895500      -0.39334741
H       -0.04848194       0.31530851      -0.91994077
H        0.82925743       0.92068601      -0.88647306
H        0.14080638       0.25044006      -0.52573860
