21
Properties=species:S:1:pos:R:3 pbc="F F F"
H        0.00000000       0.00000000       0.00000000
H        0.45934626      -0.55622131       0.73002923
H        0.89620942       0.39891118      -0.30166620
H        1.21654379       0.11576456       0.57313359
H        0.86787421      -0.43977645      -0.03810421
H        0.40176430       0.55577880       0.69119918
H        0.98612309      -0.16676909       0.25556946
H        0.07412785      -0.02115363       0.05233991
H        1.51361740       0.34188873      -0.08170858
H       -0.47037131       0.52436054      -0.76166058
H       -0.47367448       0.47424132      -0.76277244
H       -0.48567289       0.52436054      -0.71341753
H        0.46146333       0.55961603      -0.60261714
H       -0.19191253       0.50259358      -0.65432739
H        1.21392453       0.57286119      -0.47598165
H        1.21392453       0.57286119      -0.47598165
H        1.21392453       0.57286119      -0.47598165
H        1.21392453       0.57286119      -0.47598165
H        1.21699381       0.59933555      -0.50258756
H        0.55110562       1.02278781      -1.06116009
H        0.51872003       1.02278781      -1.06631863
