6
Properties=species:S:1:pos:R:3 pbc="F F F"
H        0.00000000       0.00000000       0.00000000
H        0.05321160       0.83173102       0.50344110
H        0.36780280       0.86484438      -0.25460979
H       -0.47369295       0.61471456      -0.67161363
H       -0.82453996       0.60211748       0.02369770
H       -0.47062051       1.42106569      -0.05215469
