21
Properties=species:S:1:pos:R:3 pbc="F F F"
H        0.00000000       0.00000000       0.00000000
H       -0.41358426      -0.01689900      -0.88131911
H        0.61256421       0.55622131      -0.60721236
H       -0.27250642       0.95513248      -0.94014454
H       -0.34777018       0.92740691       0.26887950
H       -0.33309647       1.42638659      -0.56710184
H       -0.11845857       0.76773798      -0.71866584
H        0.12867787       1.01038194       0.11263514
H       -0.96576905       0.75770313      -1.08903146
H       -0.13402978      -0.82782489      -1.53582335
H       -0.07566580       0.05202276      -1.12287951
H       -0.08701069       0.03701949      -1.09097028
H        1.00931847       0.93174756      -0.97380686
H        0.99620867       0.93174756      -0.98750496
H        0.99620867       0.93174756      -0.98750496
H        1.05418086       0.59046227      -0.12076831
H        1.05418086       0.59046227      -0.12076831
H        1.05418086       0.59046227      -0.12076831
H        0.20223615       1.22840524      -0.24121398
H        0.23242617       1.24708259      -0.24339813
H        1.21659517       0.70340949      -0.39202040
