21
Properties=species:S:1:pos:R:3 pbc="F F F"
H        0.00000000       0.00000000       0.00000000
H       -0.06381270       0.34709048       0.90747839
H        0.75164497      -0.06227148       0.56760693
H        0.78549755       0.83151931       0.18283042
H        0.50704682       0.96726918       0.35702425
H       -0.33425084       0.94056112      -0.40957108
H        0.49307671       1.06494796       0.18488732
H       -0.66822088      -0.04985565      -0.67727602
H       -0.26973528       0.12492770       0.13451076
H       -0.77920842       0.00000000      -0.69502652
H       -0.09278177       1.60583603      -0.12406826
H       -0.08961634       1.61841202      -0.15840998
H        0.79363084       0.92092174      -0.49883527
H       -0.42162946       1.21260500      -1.11722004
H       -0.42162946       1.21260500      -1.11722004
H       -0.42041978       1.23718739      -1.10742331
H       -1.51277077       0.92000830      -0.29545447
H       -1.51277077       0.92000830      -0.29545447
H       -1.51277077       0.92000830      -0.29545447
H       -1.51277077       0.92000830      -0.29545447
H       -1.51277077       0.92000830      -0.29545447
