9
Properties=species:S:1:pos:R:3 pbc="F F F"
H        0.00000000       0.00000000       0.00000000
H        0.50912565      -0.18477097       0.80914259
H       -0.40557343       0.14758122       1.13501287
H       -0.52473348       0.09690458       0.16997725
H        0.27245432      -0.09785400       0.78632510
H        0.61351585      -0.23452058       0.03773439
H        1.22627497      -0.46904117      -0.01076133
H        1.33374536      -0.38008618       1.00602829
H        0.50598615      -0.15528414       0.72874379
