21
Properties=species:S:1:pos:R:3 pbc="F F F"
H        0.00000000       0.00000000       0.00000000
H       -0.46163812      -0.66108263       0.54582143
H        0.80420935      -0.11800810       0.53608042
H       -0.18630025       0.33235219      -0.95297331
H        0.00276636      -0.57430470      -0.65249377
H        0.30240643      -0.87256950       0.16579211
H       -0.06199187      -1.45569277       0.14966688
H       -0.84971976      -0.17539352      -0.24327359
H        0.61900246      -1.02960074       0.10246646
H       -0.09756235      -0.50863087      -0.07364781
H        1.75839829       0.06676287       0.59476799
H        0.72739124      -0.21097732       0.43980920
H        0.17423901      -0.43901631      -0.37997591
H       -0.36737496      -0.55496967      -0.64103997
H       -0.04034789       0.75123906      -1.69955671
H       -0.04322506       0.77738810      -1.68483913
H       -0.26168817      -0.47150531       0.11911625
H       -0.48604470      -1.15854645       0.55551016
H       -0.49991512      -1.19998050       0.56878495
H        0.43358576      -0.30925274      -0.34158096
H        0.50361228      -0.28572655      -0.18576902
