7
Properties=species:S:1:pos:R:3 pbc="F F F"
H        0.00000000       0.00000000       0.00000000
H        0.83968246      -0.37845421      -0.31585881
H        0.29572424      -0.97931916       0.08249309
H       -0.23048763      -0.85764241       0.51444042
H        0.71571070      -1.24329853       0.11395052
H        0.89031911      -0.52043515       0.31718493
H        0.65539026      -0.24177939       0.50666630
