7
Properties=species:S:1:pos:R:3 pbc="F F F"
H        0.00000000       0.00000000       0.00000000
H        0.87747955       0.49504808      -0.19565487
H        0.63496089      -0.34251389       0.34563845
H        0.44787794      -0.52769721      -0.68483716
H        1.11146843      -0.16603455      -0.87113988
H        0.20252621      -0.14822209      -0.39487246
H        1.01467073      -0.18202008       0.04467261
