6
Properties=species:S:1:pos:R:3 pbc="F F F"
H        0.00000000       0.00000000       0.00000000
H       -0.72715116       0.63587439       0.12237607
H       -1.02879214      -0.21292472      -0.24723686
H       -0.26671764       0.05341591      -0.98961222
H       -1.01843834       0.56167740      -0.83710575
H       -0.04181162       0.84879911      -0.47523975
