21
Properties=species:S:1:pos:R:3 pbc="F F F"
H        0.00000000       0.00000000       0.00000000
H       -0.26684549      -0.92909771       0.11675546
H        0.70421040      -0.63064587      -0.02919268
H        0.50669444      -0.02074581      -0.76204348
H        0.23696008      -0.99649799      -0.86654168
H       -0.57982343      -0.48932126      -0.69361627
H       -1.42311859       0.15691712      -0.88164914
H       -0.47539681      -0.02785385      -0.75617409
H       -0.60457224       0.00543633      -0.37657857
H        0.58408272      -1.70111561      -1.60623574
H        0.49419960      -0.96930438      -0.97028422
H       -0.54208577      -1.54496074       0.95882601
H       -0.37631634      -0.89872235       0.11087334
H        0.27058831       0.70053869      -0.13578445
H       -0.27992955      -0.67805552      -0.17016679
H       -0.04563117      -0.23841283      -0.22424635
H       -0.01045883      -0.18560994      -0.24213848
H       -0.91104740      -0.27230385      -1.37310290
H       -0.91812682      -0.01420305       0.71051323
H       -0.91812682      -0.01420305       0.71051323
H       -0.91812682      -0.01420305       0.71051323
