21
Properties=species:S:1:pos:R:3 pbc="F F F"
H        0.00000000       0.00000000       0.00000000
H       -0.90169489       0.25064358      -0.26867270
H       -0.18911645       0.49897972      -0.81444162
H       -0.69492161      -0.73873925      -0.44669068
H        0.23695523      -0.78941590      -0.72435671
H       -0.00120921      -0.50694335      -0.89275879
H       -0.36674884      -1.03700399       0.36057544
H       -0.16922691      -0.14232391      -0.10187086
H       -0.82625699       0.12052551      -1.44601536
H       -0.85462368       0.02931869      -1.34790158
H        0.63867271      -0.27438095      -1.15945268
H        0.64996064      -0.24279055      -1.19925439
H        0.65845120      -0.21030632      -1.23976123
H       -0.48009858       0.58779204       0.10737640
H       -0.01841506      -0.50010526       0.51298529
H        0.39464393      -0.02099720       0.69371498
H        0.40942609      -0.05342782       0.73716539
H        0.82576418      -0.97585022      -0.07139391
H        0.82576418      -0.97585022      -0.07139391
H        0.84575260      -0.97585022      -0.04140788
H        0.84575260      -0.97585022      -0.04140788
