7
Properties=species:S:1:pos:R:3 pbc="F F F"
H        0.00000000       0.00000000       0.00000000
H       -0.13959605      -0.55577880       0.78719991
H        0.78541768      -0.25732699       1.11674511
H        0.67011702      -0.00668341       0.18296552
H        0.35740432       0.52944553       0.90196300
H       -0.12814361       0.46354809       0.90665668
H        0.03733426      -0.11403435       0.59888780
