6
Properties=species:S:1:pos:R:3 pbc="F F F"
H        0.00000000       0.00000000       0.00000000
H       -0.27385142       0.28314662      -0.89044607
H       -0.33221543      -0.59670103      -0.47750220
H        0.27486417      -0.87984765      -0.31365377
H        0.46796262      -0.06175160      -0.69017696
H       -0.02405621      -0.76630032      -0.91021568
