6
Properties=species:S:1:pos:R:3 pbc="F F F"
H        0.00000000       0.00000000       0.00000000
H       -0.12270200      -0.91159266      -0.45526573
H       -1.02612162      -0.01781246      -0.00900468
H       -1.07247984      -0.72682166      -0.56408930
H       -0.34951377      -0.33312097      -0.63417935
H       -0.67586458      -0.64242846       0.32114238
