12
Properties=species:S:1:pos:R:3 pbc="F F F"
H        0.00000000       0.00000000       0.00000000
H       -0.77018702      -0.01689900       0.59547228
H       -0.37125227      -0.73944688      -0.01452732
H       -1.02846754      -0.98497444       0.37311000
H       -0.29601455      -1.10298252      -0.25748312
H       -0.36394686      -0.90058124      -0.33353770
H       -1.50046849      -0.97172928       0.97265118
H       -1.50046849      -0.97172928       0.97265118
H       -1.50046849      -0.97172928       0.97265118
H       -1.50046849      -0.97172928       0.97265118
H       -1.50046849      -0.97172928       0.97265118
H       -0.85857141      -0.45158613       0.70511734
