6
Properties=species:S:1:pos:R:3 pbc="F F F"
H        0.00000000       0.00000000       0.00000000
H       -0.67230010      -0.60990006       0.35227177
H       -0.81687945       0.39602298       0.20895563
H        0.16002864      -0.38028651       0.90709639
H        0.04067689       0.59078157       0.73809665
H       -0.75399071      -0.01443443       1.19700110
