10
Properties=species:S:1:pos:R:3 pbc="F F F"
H        0.00000000       0.00000000       0.00000000
H       -0.47549847       0.19475858       0.88842231
H        0.32655010       0.79439902       0.56179988
H        0.63423580       0.79439902      -0.14141791
H       -0.62854242       0.68549418      -0.28825861
H       -0.31442925       1.25905514       0.81455368
H       -0.21781200       1.31483412       0.26759183
H       -0.57437158       0.63903248       0.08768356
H        1.68820810       0.96225613      -0.29982823
H        0.72657961       0.87786293      -0.17251202
