6
Properties=species:S:1:pos:R:3 pbc="F F F"
H        0.00000000       0.00000000       0.00000000
H       -0.43620220       0.58582085      -0.72101700
H       -1.33871937       0.27051234      -0.53634363
H       -0.62520355      -0.39057028      -0.49245873
H       -0.76145750       0.67024595       0.15580970
H       -0.91084069      -0.31423318       0.26310611
