7
Properties=species:S:1:pos:R:3 pbc="F F F"
H        0.00000000       0.00000000       0.00000000
H        0.88292891      -0.28314662      -0.29719594
H        0.88292891      -0.64899874       0.66169727
H        0.04680692      -0.70907992       0.66563934
H        0.42873764      -1.20412803      -0.14822805
H       -0.01391190      -0.53379023      -0.01273981
H        0.37474763      -0.05490476       0.42863801
