14
Properties=species:S:1:pos:R:3 pbc="F F F"
H        0.00000000       0.00000000       0.00000000
H       -0.61304885      -0.15966894      -0.80746567
H       -0.77203155       0.58582085       0.33779436
H       -0.18517369       0.17268325       0.06419295
H       -1.38601482       0.42352188      -0.70512772
H       -0.76269519       0.61828047       0.08662075
H       -1.10597634       0.07267165      -0.89934641
H       -0.25828719      -0.60634637      -1.13525963
H       -0.23616776      -0.60634637      -1.10956728
H       -1.11890090      -0.72680014      -0.38719088
H       -1.11890090      -0.72680014      -0.38719088
H       -0.90575159      -1.42365587      -0.02048674
H       -1.36141574      -0.81291413       0.27509195
H       -1.12822247      -0.62649113       0.24255347
