6
Properties=species:S:1:pos:R:3 pbc="F F F"
H        0.00000000       0.00000000       0.00000000
H        0.88791460       0.34709048      -0.19798161
H        0.74192291      -0.15188923       0.62528419
H        1.14341867       0.79021442       0.69285393
H        0.15697776       0.49504808       0.88521707
H        0.31489849       0.98497301       0.11931467
