6
Properties=species:S:1:pos:R:3 pbc="F F F"
H        0.00000000       0.00000000       0.00000000
H       -0.04850490       0.68549418       0.68978679
H       -0.65891266       0.37845421      -0.60882467
H       -0.68171746       1.17285323       0.04058582
H       -0.47059157       0.17459893       0.15121152
H        0.16772696       0.87026513      -0.24142975
