12
Properties=species:S:1:pos:R:3 pbc="F F F"
H        0.00000000       0.00000000       0.00000000
H        0.75986940       0.40936196      -0.45064643
H        0.25467122       0.90441000       0.29301074
H       -0.03116474       0.29450995       0.99613285
H        1.55451548       0.03090775      -0.03426796
H        0.82132149      -0.10440123       1.40535283
H        1.23915994       0.87902296       0.25487462
H        1.30322909      -0.60338092       0.72209215
H        0.76944482      -0.58002084      -0.17796734
H        0.35815778      -0.60990006       0.66918302
H        1.60853767       0.27405298       0.97509241
H        0.77929556       0.90922451       1.13252926
