12
Properties=species:S:1:pos:R:3 pbc="F F F"
H        0.00000000       0.00000000       0.00000000
H       -0.92830116      -0.43148959      -0.07346868
H       -0.26041162      -0.68549418       0.64058125
H       -0.73078513      -1.04138970      -0.80631948
H       -0.32461205      -0.26419187      -0.93709844
H       -0.71239948      -1.34657681       0.08674216
H        0.60635173      -0.38219997      -0.67740357
H        0.22359422      -1.48010433       0.35353783
H        0.15231705      -1.14088130      -1.17642713
H       -0.05537137      -1.69794285      -0.55353737
H        0.75181222      -1.32084525      -0.46328408
H        0.67523199      -0.68065178       0.30214012
