21
Properties=species:S:1:pos:R:3 pbc="F F F"
H        0.00000000       0.00000000       0.00000000
H       -0.50007260       0.47200781      -0.61275923
H       -0.34259558       0.34709048       0.84274393
H       -1.02640533       1.03258467       0.73996836
H       -0.22807595       1.46139061      -0.63428593
H       -0.61656249       1.84905708       0.27228734
H        0.48042867       0.73884273      -0.46320230
H       -1.11162484       1.08326125      -0.22865462
H       -0.09936404       1.35007739       0.92923939
H        0.48076868       0.66239899       0.42956987
H       -0.93360394       0.25798255       0.15735316
H        0.45669553       1.58577752       0.11999500
H       -0.49102625       1.77054846       0.24547000
H       -0.17034584      -0.00619486       0.04263669
H        0.68642354       0.63620234       0.69842821
H        0.56435108       0.61935985      -0.55587590
H        1.17153215       2.24686003       0.11372186
H        1.52734697       1.25671530      -0.04092219
H        1.52104020       1.25671530      -0.07839698
H        1.17131186       2.24686003       0.13881251
H        0.36943159       2.46629143       0.73741502
