12
Properties=species:S:1:pos:R:3 pbc="F F F"
H        0.00000000       0.00000000       0.00000000
H        0.15607943       0.96046287      -0.03480161
H        0.38112229      -0.37845421      -0.81214476
H        0.58543164       1.21110642      -0.87199652
H        0.01157653       0.99326789      -1.62783885
H        0.79565412       0.36230731      -0.44373548
H       -0.34184152       1.30755329      -0.79615819
H        0.67635030       0.37920630      -1.40993524
H       -0.18155111       0.03893054      -1.62953365
H       -0.89569259       0.65364510      -1.22277594
H       -0.75459874       0.58319080      -0.19629113
H       -0.58088487      -0.26044610      -0.71899319
