12
Properties=species:S:1:pos:R:3 pbc="F F F"
H        0.00000000       0.00000000       0.00000000
H        0.45279220       0.75366068      -0.41837266
H        1.04660845       0.00000000      -0.25272602
H        0.09792131       0.28314662       0.92644495
H        0.51136148       1.16299427       0.98118299
H        0.66477251       1.50732136       0.16052350
H        1.37350500       0.92413056      -0.16451138
H        1.33904350       1.22258234       0.81684625
H       -0.12779289       0.95154256       0.26545635
H        1.01919770       0.40115473       1.21865153
H        0.78842658      -0.28314662       0.64238906
H        1.66537142       0.22961354       0.53323448
