12
Properties=species:S:1:pos:R:3 pbc="F F F"
H        0.00000000       0.00000000       0.00000000
H        0.45934626      -0.55622131       0.73002923
H        0.72078198       0.49504808      -0.53733099
H        0.88954210       0.37703997       0.41432810
H        0.25969583      -0.40936196      -0.84441799
H        0.07291359      -0.96543115      -0.10337872
H        0.96696931      -1.22962308       0.32579595
H        1.27856600      -0.16603455      -0.98444140
H        1.41817677      -0.40474051       0.65414429
H        1.62934852       0.23085621      -0.13979709
H        0.84404510      -1.11691189      -0.67824447
H        1.68559468      -0.75183100      -0.21538246
