21
Properties=species:S:1:pos:R:3 pbc="F F F"
H        0.00000000       0.00000000       0.00000000
H        0.12256700       0.83228827       0.37498182
H       -0.31881371       0.01781246       0.97537911
H       -0.97999513      -0.22961354       0.20052692
H       -0.03892308      -0.81974953       1.49832749
H       -0.06421766       0.81538928      -0.58046931
H       -0.44431329      -1.56715798       0.92355514
H        0.53761142      -1.26870620       0.91493815
H       -1.13063335      -1.19007635       0.25419322
H       -0.47671992       1.55483615      -0.03987181
H       -0.65491062       0.18477097      -0.69642848
H       -0.93641514      -0.73542696       1.04238355
H       -0.73479044       1.12334657       0.85485733
H       -1.03527355       1.11384106      -0.72641754
H       -0.20768023      -1.58898759       0.04839893
H       -0.53258729      -0.73134518      -0.41226244
H        0.55338931      -0.77365816       0.01604873
H       -1.57920456       0.39129317      -0.24125001
H       -0.00671256      -1.56826830       0.07028364
H        0.53792250      -0.24770659      -0.86512077
H       -1.46093941       1.21230161       0.13505280
