21
Properties=species:S:1:pos:R:3 pbc="F F F"
H        0.00000000       0.00000000       0.00000000
H        0.97460508       0.08895500       0.30912116
H       -0.16083308       0.08895500      -1.00972450
H        0.30052769       0.81366080       0.44238013
H        0.75318623      -0.27689707      -0.71981966
H       -0.47554016       0.83756196      -0.35450712
H        1.07221806       0.98482430       0.11878531
H        0.24533522       1.39418626      -0.19225873
H        0.04594018       1.07833779      -1.18774247
H        1.45326424       0.47051144      -0.65203083
H        0.71617013       0.47051144      -1.42219722
H        0.91371089       1.17958283      -0.87633699
H        1.01855969       0.15520293       0.16017199
H        0.17884082       0.82066298       0.36629853
H       -1.15797913       0.85811478      -1.32208610
H       -1.15797913       0.85811478      -1.32208610
H       -1.15715694       0.89919573      -1.32092023
H       -1.18014383      -0.58874267      -1.35351169
H       -1.18014383      -0.58874267      -1.35351169
H       -1.18014383      -0.58874267      -1.35351169
H       -1.18014383      -0.58874267      -1.35351169
