21
Properties=species:S:1:pos:R:3 pbc="F F F"
H        0.00000000       0.00000000       0.00000000
H        0.41703188       0.87984765      -0.00365971
H       -0.45256034      -0.26419187      -0.88244867
H        0.35238573       0.37845421      -0.82501978
H       -0.46093297       0.58460724      -1.35945070
H       -1.05875802       1.25485325      -0.86276233
H        0.00465578       1.29368711      -0.88144052
H       -0.42485380       1.46566844      -0.04062295
H       -1.02612162      -0.01781246      -0.00900468
H       -0.38367891       0.62920403       0.49040589
H       -1.29522467       0.32162899      -0.88984340
H       -1.36723614       0.87639904      -0.02034050
H       -1.19993186       0.84704256       0.00632077
H        0.29688221       0.75963145       0.01825979
H        0.23731697       0.37460858      -0.99358189
H       -0.76385713       0.60082406      -0.33248219
H       -0.33394271       0.72715604      -0.48297378
H       -0.12731743       0.64246505      -0.74014199
H       -0.09017247       0.61565578      -0.67604119
H        0.37871736      -0.14718817       0.51743048
H        0.37547210      -0.16935377       0.51299655
