12
Properties=species:S:1:pos:R:3 pbc="F F F"
H        0.00000000       0.00000000       0.00000000
H       -0.78841746      -0.36585209      -0.54577839
H       -0.35602629       0.84879911       0.31756309
H       -0.53281271       0.58582085      -0.65287703
H       -1.16315913       0.76440591       0.85559225
H       -1.61393476      -0.45024529      -0.03640634
H       -0.42353582       0.11698788       0.95627725
H       -1.32829368      -0.24797374       0.88938212
H       -0.69578922      -0.63369346       0.33058840
H       -1.50259352       0.29523054      -0.57713449
H       -1.21168530       1.04889119      -0.03360075
H       -1.88369060       0.33784711       0.25560606
