12
Properties=species:S:1:pos:R:3 pbc="F F F"
H        0.00000000       0.00000000       0.00000000
H       -0.33764970       0.29845181       0.92208624
H       -0.91043419      -0.20052791       0.31299019
H       -1.35541928       0.42283872       0.87740076
H       -0.76005548      -0.01575693      -0.63110030
H       -1.53074169       0.20208156      -0.07734042
H       -1.46314633       1.12051225       0.23885089
H       -0.19752890       0.77885318      -0.61628765
H       -0.71523356       1.17118883       0.86023593
H        0.08352786       0.95335031       0.34780312
H       -0.62844050       1.48793316      -0.10679597
H       -1.16102266       0.89686126      -0.69254160
