12
Properties=species:S:1:pos:R:3 pbc="F F F"
H        0.00000000       0.00000000       0.00000000
H        0.42017129      -0.49897972       0.72286665
H       -0.28079465      -0.66108263      -0.65740788
H       -0.16727516      -1.50656033      -0.31010601
H       -0.47882202      -0.00393164       0.71497756
H       -1.04270196      -1.12463069      -0.14952576
H        0.37527308      -1.38217342       0.55215442
H       -0.82703394      -0.12193974      -0.18662292
H        0.43470851      -0.92740691      -0.06533600
H       -1.10840416      -0.64963692       0.58176982
H       -0.63538599      -1.54184234       0.47216767
H       -0.36324275      -0.88377929       1.11568999
