12
Properties=species:S:1:pos:R:3 pbc="F F F"
H        0.00000000       0.00000000       0.00000000
H       -0.02481474      -0.91159266      -0.47085762
H        0.35738954      -0.21783850       0.87913591
H       -0.76411432      -1.35136914      -0.01468483
H        0.13986033      -1.68296123       0.18579805
H        0.70761728      -0.75192374       0.23012239
H       -0.85500878      -0.38564110      -0.17509305
H        0.36259297      -1.21941316       1.07396317
H       -0.43826672      -0.68138659       1.33232260
H       -1.14137411      -0.79559034       0.69018805
H       -0.65161848       0.05990168       0.61666620
H       -0.56701386      -1.61832428       0.90068626
