21
Properties=species:S:1:pos:R:3 pbc="F F F"
H        0.00000000       0.00000000       0.00000000
H        0.58115071      -0.52769721      -0.57607329
H        0.64874601      -1.44612789      -0.25988197
H        1.31870174      -0.89354932       0.03670293
H        0.88055223      -1.47674012       0.68166369
H       -0.31880310      -0.58319080       0.71155745
H       -0.02562249      -1.56413603       0.43247777
H        1.00169814       0.08895500       0.20496775
H        1.15089428      -0.52107483       0.94039679
H       -0.24873577      -0.95423597      -0.29298991
H        0.40089598      -0.93028128       1.26799464
H        0.41883236       0.03779417       0.92765349
H       -0.00973400      -1.51610208       0.53211367
H        1.20013154      -0.81850272      -0.13131791
H        0.55017531      -0.71244276       0.33080584
H        0.54190093      -0.70907992       0.38937128
H        0.70586413      -1.59159780       0.11365378
H       -1.36681104       0.26467192       0.08406569
H       -1.36681104       0.26467192       0.08406569
H       -0.58461809      -0.93642354      -1.26262367
H       -1.36681104       0.26467192       0.08406569
