21
Properties=species:S:1:pos:R:3 pbc="F F F"
H        0.00000000       0.00000000       0.00000000
H        0.05739931      -0.52769721       0.81627315
H        0.49588972       0.89468008       0.08345579
H       -0.49588972       0.89468008       0.08345588
H        0.06611693       1.39365983       0.70251048
H        0.87892127       0.05711812       0.53633612
H       -0.77785748      -0.00174564       0.53512371
H       -0.45202377       0.02852410       1.51228309
H        0.86154419       0.86596262       0.89458346
H        0.03679043       0.92320418       1.63031769
H        0.59553856       0.00832021       1.39158893
H       -0.76026893       0.84218490       1.07524538
H        0.07225281       0.88377506       1.55034685
H        0.63487619       0.72287256       0.13294375
H       -0.55527580       0.04351211       1.65335345
H        0.88971186      -0.06414911       0.43456268
H        0.21607772       0.05578500       0.84297794
H       -0.05113069       0.42664015       0.97603047
H       -1.29042959       0.13539891      -0.46434218
H       -1.29042959       0.13539891      -0.46434218
H       -1.29229283       0.09633295      -0.46797538
