12
Properties=species:S:1:pos:R:3 pbc="F F F"
H        0.00000000       0.00000000       0.00000000
H        1.00909960       0.15966894       0.09771150
H        0.58368433      -0.45504564      -0.60547531
H        1.29408693       0.15485442      -0.87270367
H        0.56871557       0.01461539      -1.45826793
H        1.23052335       1.01731133      -0.42069471
H       -0.22940272      -0.01526919      -0.91132987
H        0.93542033       0.99241638      -1.34511459
H        0.39794552       0.91332960       0.17862612
H       -0.03715439       0.86142015      -1.40910506
H       -0.39317736       0.81647241      -0.48177618
H        0.35156408       1.43928123      -0.70145780
