12
Properties=species:S:1:pos:R:3 pbc="F F F"
H        0.00000000       0.00000000       0.00000000
H       -0.96783787       0.05067664       0.09371616
H        0.19449790      -0.94706190      -0.11534848
H       -0.66639590      -1.50328326      -0.06239922
H        0.15083505      -0.36585209      -0.94695562
H       -0.51491916      -0.64861012       0.56360501
H       -0.56594086       0.27002230      -0.77387488
H       -1.42545605      -0.77299702       0.10668686
H       -1.41594136      -0.24777517      -0.78004217
H       -1.20856798      -1.13884914      -0.82735574
H       -0.19747090      -1.22780418      -0.97932202
H       -0.70449591      -0.43340516      -1.38574505
