21
Properties=species:S:1:pos:R:3 pbc="F F F"
H        0.00000000       0.00000000       0.00000000
H        0.63772744       0.77136850       0.22719663
H       -0.22171701       0.64286757       0.76869160
H        1.32776833       0.39291430       0.80050021
H        1.00762832      -0.19475858      -0.00884257
H        0.60190332       0.86257529       1.24838340
H        1.09482074      -0.65653265       0.89282531
H       -0.09326982       0.21970773       1.64433730
H        0.25193572      -0.74092585       1.37291229
H        0.87310374      -0.01366508       1.66151690
H       -0.48589772      -0.34201467       0.78147697
H        0.24777865      -0.84099436       0.38047931
H       -0.52456629      -0.30072743       0.80335110
H        0.46386331      -1.32470500       0.30487549
H        0.47591722      -1.28723335       0.25578803
H        0.69864696      -0.03093585       1.13629556
H        1.52892387       0.37645072       0.88799918
H        1.22527134      -0.61282265       0.65701503
H       -0.17603254      -0.03265083      -0.07891107
H        1.47094393       0.40551642       0.70177686
H        0.55376011      -0.34623939       0.83916569
