21
Properties=species:S:1:pos:R:3 pbc="F F F"
H        0.00000000       0.00000000       0.00000000
H       -0.93989587      -0.24138860      -0.47165081
H       -0.12814361       0.46354809       0.90665668
H        0.06306279      -0.49504808       0.89681339
H       -0.70512688      -0.16269588       1.49074149
H       -0.71887809       0.51696402       0.06909859
H       -0.39069504      -0.92653763       0.08364397
H       -1.73740005       0.14322515       0.14494184
H       -1.37804532      -0.82457942       0.17330995
H       -0.77667642      -0.97995353       1.03311181
H       -1.09364772       0.54794133       1.00014687
H       -1.60575819      -0.35745448       1.03879416
H       -1.52413595       0.13857937       0.22867841
H       -0.07068539       0.53012890       0.91918635
H       -1.42088842      -0.49133423       1.14152968
H        0.14414418       0.12530005      -0.01604913
H        0.83357406      -1.16529405       0.99882638
H        0.56952912      -1.04454577      -0.02637632
H       -0.05210483      -0.22807336      -0.01000728
H        0.08567530      -2.17990160       0.05505396
H        0.04711217      -2.16218996       0.06154396
