12
Properties=species:S:1:pos:R:3 pbc="F F F"
H        0.00000000       0.00000000       0.00000000
H       -0.27385142       0.28314662      -0.89044607
H       -0.55866885      -0.53051418      -0.43779159
H        0.09287319      -0.96923625      -0.00407762
H        0.76108223      -1.21987987      -0.66644859
H       -0.17079467      -1.27055645      -0.94411445
H        0.86392415      -0.38604546      -0.11996534
H        0.44378871      -0.89210224      -1.59765911
H        1.11635387      -0.30165225      -1.05656445
H        0.62742829       0.40936196      -0.62194651
H       -0.42740977      -0.48274028      -1.45104051
H        0.34364116       0.10045052      -1.56692827
