21
Properties=species:S:1:pos:R:3 pbc="F F F"
H        0.00000000       0.00000000       0.00000000
H       -0.26684549      -0.92909771       0.11675546
H       -1.28699887      -0.98251361       0.21553735
H       -1.61468911      -0.07585669       0.07896051
H       -1.59003735      -0.45656204       1.04310393
H       -0.01323247      -0.37743080       0.80934620
H       -0.33109355       0.54099983       0.75009751
H       -1.35161853       0.45204484       0.81286490
H       -0.77329189      -0.98425925       1.09333801
H       -0.86394447       0.52410084      -0.06466943
H       -0.84953439      -0.37261355      -0.40471071
H       -0.71738774      -1.01805270       1.03459132
H       -0.77817720      -0.16266972       1.40160513
H        0.30680266      -1.78744054      -0.19677728
H        0.27812716      -2.49205804       0.61981261
H       -0.36599895      -2.61644483      -0.16946131
H       -0.64541912      -2.77520466       0.74208689
H        0.20892335      -1.35595095       0.72926819
H        0.32889146      -1.80956817      -0.24231112
H       -0.36914277      -1.20876276       1.00675809
H        0.84472340      -2.41807914      -1.44999778
