21
Properties=species:S:1:pos:R:3 pbc="F F F"
H        0.00000000       0.00000000       0.00000000
H       -0.13959605      -0.55577880       0.78719991
H        0.59639817      -0.43139189       1.49158919
H       -0.30611897      -0.11608338       1.67626262
H        0.41755146       0.42625648       1.77582657
H       -0.14340274       0.87984765       0.39161801
H        0.43077543       1.12307322       1.02243721
H        0.77926183      -0.46354809       0.48083067
H        1.13068318       0.36300713       1.12173295
H        0.75792736       0.58319080       0.18301782
H       -0.44680181       0.83992660       1.33508253
H       -0.72771674       0.21882331       0.74065417
H        1.11116004       0.28386042       1.10095000
H       -1.11036384       1.54454422       1.81187057
H       -1.72525167       2.21479011       2.28727269
H       -1.19950223       2.91160679       2.82704854
H       -1.40849519       2.15444422       1.11387300
H       -0.43291557       1.85599244       1.00209332
H       -0.78828669       2.38390970       3.53450775
H       -2.04661560       1.31493068       1.45968580
H       -0.54291487       2.81165767       0.64442337
