12
Properties=species:S:1:pos:R:3 pbc="F F F"
H        0.00000000       0.00000000       0.00000000
H        0.07742673      -0.40936196      -0.88005048
H        0.75961709       0.75960165       0.10057066
H       -0.22073489       0.92909771      -0.19003806
H        0.95846748      -0.07212937      -0.36498594
H        1.26010847       0.77666974      -0.73459888
H       -0.62704152       0.26419187      -0.76833940
H        0.80860680       0.03041449      -1.34912753
H        0.57517737       1.32800889      -0.70064306
H        0.54827571       0.95951223      -1.47976470
H       -0.27409029       1.08876669      -1.20245242
H       -0.13871962       0.27401805      -1.55847919
