21
Properties=species:S:1:pos:R:3 pbc="F F F"
H        0.00000000       0.00000000       0.00000000
H        0.24483983      -0.86484438      -0.37437752
H       -0.82650280       0.29845181      -0.53022969
H        0.48591101      -0.69698727      -1.41256618
H       -0.30644280      -0.38167876      -1.88247776
H       -0.42786211      -1.16329622      -1.08972526
H       -0.75813621      -0.67008579      -0.27725890
H       -1.07313967      -0.39836493      -1.24222732
H       -0.64704072       0.43336609      -1.51558447
H        0.09246355       0.66430390      -0.80404890
H        0.40336311       0.31513798      -1.62960243
H        0.71503544      -0.01689900      -0.66068119
H       -0.41189253      -1.07849550      -1.13638747
H        0.06851282       0.59409398      -0.55486107
H       -0.16002269       0.48316562      -2.30516696
H       -0.01220275       1.37784576      -2.78581309
H        0.70405048       1.80933535      -2.19073153
H        0.69150639       0.81108105      -2.42875433
H       -0.89904046       1.20998871      -2.19465303
H        0.90347642       1.10934591      -1.58350611
H       -0.43155497       2.10466886      -2.00937247
