12
Properties=species:S:1:pos:R:3 pbc="F F F"
H        0.00000000       0.00000000       0.00000000
H        0.36329272       0.89468008       0.34769225
H        0.99841404       0.22961354       0.06140762
H        0.62609398      -0.64707583       0.44366068
H        1.21450055       0.81280434       0.81057787
H       -0.12070593      -0.55622131       0.85403270
H        0.10085972      -0.00044250       1.62219906
H       -0.34300691       0.39084059       0.81259620
H        1.32180333      -0.14809611       0.90741569
H        0.71912611      -0.67422938       1.33238101
H        0.94741130       0.31545198       1.74304581
H        0.36329272       0.87686765       1.37385333
