21
Properties=species:S:1:pos:R:3 pbc="F F F"
H        0.00000000       0.00000000       0.00000000
H        0.42330277      -0.73181123      -0.48304045
H        0.20112696      -1.50641334       0.06348532
H        1.06784034      -1.09766328       0.22692251
H        0.52374971      -1.41297174       0.97029781
H        0.93658584      -0.18477097       0.19164445
H       -0.42927879      -0.34709048       0.80206537
H       -0.43744233      -1.19265628       0.87460369
H        1.05815792      -0.62454742       1.05180597
H        0.44191968       0.06227148       0.94868374
H       -0.51468128      -0.66670471      -0.00331032
H        0.13599899      -0.57794172       1.46334386
H        0.14856559      -1.43807316       0.13240342
H        0.34047362       0.10377407       1.06463826
H        0.26073623       0.12006581       1.11503828
H        1.04247332       0.68366939       1.73649287
H        1.04247332       0.68366939       1.73649287
H        1.04247332       0.68366939       1.73649287
H        1.04247332       0.68366939       1.73649287
H        1.04247332       0.68366939       1.73649287
H        1.04247332       0.68366939       1.73649287
