21
Properties=species:S:1:pos:R:3 pbc="F F F"
H        0.00000000       0.00000000       0.00000000
H       -0.81573808      -0.52769721      -0.06456009
H       -0.80876899       0.37845421       0.38823459
H       -0.19411640       0.97931916      -0.23785870
H       -0.52959406       1.03273511      -1.20632422
H       -0.60869503       0.13805503      -1.70292723
H       -0.27666420      -0.55876172      -1.02652073
H        0.25571483       0.36460459      -0.92568260
H       -1.25795460      -0.41772377      -1.23641586
H       -1.21880841      -0.54550964      -1.00824487
H       -1.58497238       0.08701736      -0.35391879
H       -1.24374783       0.52679384      -1.15280759
H       -0.03175145      -0.34876305      -0.27723390
H       -0.83498287       0.18053415       0.41607970
H       -1.20168698       1.03273511      -0.42566794
H       -1.70988190       1.89037752      -0.18171839
H       -2.14683771       2.78505754       0.06716116
H       -1.78500724       1.75961185       0.88663727
H       -2.69135809       2.69610262       0.93255615
H       -1.66404176       0.94595104       0.36569160
H       -2.67881227       2.03501987       0.21780211
