21
Properties=species:S:1:pos:R:3 pbc="F F F"
H        0.00000000       0.00000000       0.00000000
H       -0.51304650      -0.77136850      -0.44169885
H       -0.35576329      -1.60309958       0.03949386
H        0.26533315      -1.36171103       0.88807976
H        0.63561457      -0.39891118       0.70013422
H        0.10759223      -1.40724289      -0.83985984
H        0.93980491      -0.18477097      -0.17517799
H        0.57262349      -1.83137202       0.09243411
H        1.07285905      -1.22147202      -0.47839618
H       -0.37865987      -0.69681674       0.65144992
H       -0.49781993      -0.74749339      -0.31358570
H        1.11362028      -1.08396351       0.54190814
H        0.08314642      -1.43246078      -0.71664315
H        0.80581963      -1.23928452      -1.46920216
H        0.19342583      -1.50304317       0.86492825
H        1.19803059      -0.13397247      -0.30775970
H        1.07304931      -0.19284774      -0.08378327
H        0.64962900      -1.27762723      -1.46927977
H        0.00381994      -2.12217760       0.59978718
H        1.43096399      -2.19781160      -0.54744446
H        2.11402035      -1.74419427       0.15383500
