21
Properties=species:S:1:pos:R:3 pbc="F F F"
H        0.00000000       0.00000000       0.00000000
H       -0.61304885      -0.15966894      -0.80746567
H       -0.42606509       0.64286757       0.67713648
H       -1.12252462       0.00000000       0.06904113
H       -0.64467537       0.76087564      -0.26432222
H       -0.26828569      -0.30419433       0.83912528
H       -1.93601847       0.11800810      -0.45284283
H       -1.47802162       0.74306321       0.33446050
H       -1.39062142      -0.71589023      -0.43420634
H       -1.47646403       0.36628264      -0.63079339
H       -1.95126426       0.55778456      -1.32141936
H       -1.16376233       0.11517036       1.03125429
H       -1.37210917       0.69628346       0.28283814
H       -1.52847004       0.00486112      -2.14582705
H       -0.57473516      -0.16797626       0.30949545
H       -1.01623607       0.15634191      -1.33174443
H       -0.39269751      -0.77620214       0.05805665
H       -1.46695125      -0.92254579      -1.71056199
H       -0.16739428       0.06593513       0.00737816
H       -0.92032444      -0.11079311       0.30867454
H       -0.77476478      -0.05278516       0.25442028
