21
Properties=species:S:1:pos:R:3 pbc="F F F"
H        0.00000000       0.00000000       0.00000000
H        0.38154608      -0.49897972      -0.74397767
H       -0.13329704      -1.01761651       0.00351001
H        0.05812879      -0.55406845       0.89894462
H        1.05201662      -0.64302343       1.13894010
H        0.55177456      -1.36772919       0.69319987
H        0.89941758       0.21783850      -0.30274606
H        1.44458950      -1.08458257       0.42717290
H        1.48480940      -0.14404371       0.42355877
H        0.70628035      -1.39365983      -0.36002558
H        1.30291224      -0.63999915      -0.51522541
H        0.67971492       0.17774278       0.73725355
H        0.74026102      -1.34877443      -0.27100176
H        0.54460853       0.23723094       0.55913812
H        1.01671076      -0.49983704       1.22662258
H        0.50218636      -0.37552625       0.19903362
H        1.12969708      -0.69108278       1.06866574
H        0.55169839      -0.71267474      -0.36373180
H        0.57281005      -0.69286478      -0.37292266
H       -0.47018391      -0.77643919       0.28340420
H        2.18929815      -0.90419102      -0.96002454
