21
Properties=species:S:1:pos:R:3 pbc="F F F"
H        0.00000000       0.00000000       0.00000000
H        0.14728610      -1.02954066      -0.28719354
H        0.81555575       0.58582085      -0.21214773
H       -0.45634472      -0.41482610      -0.84493876
H        0.20145142      -1.05769372      -1.30029511
H        0.94130850       0.60363328      -1.23057437
H        1.60473275       0.04741198      -0.67938459
H        1.15205598      -0.33847040      -1.57892764
H        0.04000387      -0.04897401      -1.66537404
H        0.93543684      -0.42742822      -1.61030030
H        1.04772985      -1.04735315      -0.77933949
H       -0.13616711       0.53684688      -0.84129786
H        1.15528429      -0.84726810      -0.90492308
H        0.12559110       0.58764774      -0.80315489
H        1.16531575      -0.38407761       0.14162296
H        0.30372190      -0.87912571      -0.11510110
H        1.25404620      -0.38407761       0.18326223
H        2.59938550      -0.35895747       0.71646613
H        2.59938550      -0.35895747       0.71646613
H        2.59938550      -0.35895747       0.71646613
H        2.59938550      -0.35895747       0.71646613
