12
Properties=species:S:1:pos:R:3 pbc="F F F"
H        0.00000000       0.00000000       0.00000000
H        0.21426670       0.05341591       1.00227761
H       -0.62972569       0.31760776       1.52304935
H        0.16021094       0.94720668       1.38473928
H       -0.70214230      -0.25064358       0.62628657
H        0.52546847       0.78753775       0.43900329
H       -0.17612889       0.92909771      -0.23198484
H       -0.06834769       1.54119849       0.60465002
H       -0.94897521       1.29055488       0.27338913
H       -0.80844355       1.27700663       1.26478982
H       -0.93758643       0.25885177      -0.07617514
H       -1.30140591       0.50301707       0.77099150
