21
Properties=species:S:1:pos:R:3 pbc="F F F"
H        0.00000000       0.00000000       0.00000000
H        0.54069358       0.79439902       0.36042264
H        0.00715810       1.35062027       1.03812587
H       -0.93280756       1.09997666       0.99685639
H       -0.18664676       0.39548784       0.96471548
H        0.29662696       1.70599174      -0.04300535
H       -0.96242255       0.30536652       0.43491465
H       -0.65148306       1.85363734       0.44830102
H        0.22241989       0.84507567      -0.55837810
H       -1.33442152       1.18893170       0.05658132
H       -0.86293626       0.60574090      -0.56442678
H        0.01827824       0.87358224      -0.57216001
H       -0.58007473       1.64586139      -0.51682258
H       -0.16248280       0.04951960      -0.06113100
H        0.24297655       1.62836051       0.02255845
H       -0.52013528       0.57601815       0.77352387
H       -0.49972761       0.59695959       0.68723655
H       -0.42280024       0.91240710       0.28416872
H       -0.40779674       0.94587982       0.52004904
H       -0.40619344       0.91240710       0.55417496
H        1.74606442       0.91072476       0.93903828
