12
Properties=species:S:1:pos:R:3 pbc="F F F"
H        0.00000000       0.00000000       0.00000000
H        0.36925858       0.05341591      -0.95609558
H        0.21369533      -0.83756196      -0.55330646
H       -0.95883048       0.15148079      -0.07588487
H       -0.41698945       0.24817449      -1.58633924
H       -0.47895947       0.65753645      -0.70506549
H        0.00643584      -0.67923242      -1.46822357
H       -1.21126020       0.23587400      -1.01248395
H       -0.95705795      -0.56122434      -1.54447746
H       -0.53152084      -0.77592611       0.02729820
H       -0.59537768      -1.23545372      -0.85035449
H       -1.34193313      -0.67571867      -0.55944169
