12
Properties=species:S:1:pos:R:3 pbc="F F F"
H        0.00000000       0.00000000       0.00000000
H       -0.06381270       0.34709048       0.90747839
H        0.80927086       0.03178197       0.61359644
H        1.35382605       0.80638409       0.38663340
H        0.73842406       0.86351299       1.11486006
H        0.89258885       0.22056323      -0.31863111
H       -0.13966644       1.41643643       0.81929266
H       -0.60090363       0.83061558       0.11402816
H        0.03995359       0.77993894      -0.61726856
H        0.90006822       1.23787367      -0.42653602
H        0.74096107       1.66708004       0.48803174
H       -0.06464911       1.60521770      -0.13190588
