12
Properties=species:S:1:pos:R:3 pbc="F F F"
H        0.00000000       0.00000000       0.00000000
H       -0.92501378       0.29845181       0.32954502
H       -0.08434072      -0.92740691      -0.43142429
H       -0.78710067      -0.26632428      -0.56241739
H       -1.08429480      -1.15702045      -0.40509322
H       -1.29177582      -0.37179413       1.01480389
H       -1.54219675      -0.44895670      -0.00778216
H       -1.33203053      -1.18168843       0.50920171
H        0.23408872      -0.87399101       0.54277968
H       -0.39095539      -1.48014021       0.22879490
H       -0.59688377      -1.03287673       1.18260050
H       -0.33274257      -0.13076572       1.01799309
