12
Properties=species:S:1:pos:R:3 pbc="F F F"
H        0.00000000       0.00000000       0.00000000
H        0.49089283       0.77460212       0.32722577
H       -0.14065576       1.38450217       0.74821174
H        0.22238526       1.57926071      -0.19178516
H       -0.22651178       0.43148959       0.90323478
H       -0.61399400       0.28314662      -0.70064270
H        0.28629526       0.72254789      -0.67028606
H       -0.89467448       0.08439910       0.28586316
H       -0.55882227       1.29552627      -0.85991377
H       -0.76790285       1.70364761       0.04734093
H       -1.29784405       0.89786118      -0.24479297
H       -1.03365386       0.94924349       0.71105695
