12
Properties=species:S:1:pos:R:3 pbc="F F F"
H        0.00000000       0.00000000       0.00000000
H       -0.37664786      -0.36585209      -0.88182342
H       -0.33987296       0.64286757      -0.72424549
H       -1.16323733       0.32755905      -1.13741946
H       -0.57982606       0.70907992       0.33025494
H       -1.23909509       0.93869346      -0.42205206
H       -0.55495691      -0.83551311      -0.04774594
H       -1.49307418       0.39377141       0.45116574
H       -1.83166313       0.10113150      -0.44806892
H       -1.54931331      -0.52175605       0.22963274
H       -1.35385406      -0.64614296      -0.77019101
H       -0.69825095      -0.11800810       0.66826683
