21
Properties=species:S:1:pos:R:3 pbc="F F F"
H        0.00000000       0.00000000       0.00000000
H        0.19410905      -0.89379078       0.33394706
H        0.42495400      -0.22961354      -0.90554708
H        1.42490804      -0.45922709      -0.87921596
H        0.74610937      -0.08439321       0.61988676
H        1.14259934      -1.04527164       0.49357328
H        1.60749042      -1.16965854      -0.41291890
H        0.72857654      -1.54811275      -0.23307525
H        0.89331651      -1.11898196      -1.07280409
H       -0.05997911      -1.02401257      -0.47300357
H        1.67421710      -0.40581119       0.11492473
H        0.93511528       0.39891118      -0.14054634
H        1.59463859      -0.21098888       0.23510237
H       -0.01234150      -1.03002691      -0.59825754
H        0.92395014       0.11770535      -0.36489314
H       -0.75103760       0.58319080       0.20950416
H        0.02662367       0.56537837      -0.46001026
H       -1.56106234       1.28780842       0.31674856
H       -1.65982842       0.21733871      -0.09639698
H       -0.65157408       1.50564694       0.04575351
H       -1.04842520       2.06241059       0.60873443
