21
Properties=species:S:1:pos:R:3 pbc="F F F"
H        0.00000000       0.00000000       0.00000000
H       -0.90169489       0.25064358      -0.26867270
H        0.65833944       0.43977645      -0.56678629
H       -0.62277877      -0.69146013      -0.56527054
H        0.43870986       0.10742426      -1.51263452
H        0.43206191      -0.51588881      -0.86482346
H       -0.26461536      -0.63998425      -1.51880646
H       -0.48127124       0.37773609      -1.80417061
H       -1.18291521      -0.07559711      -1.25162840
H       -0.50289500      -0.66736960      -0.63905823
H       -0.23257905      -0.37404892      -1.49883604
H       -0.28993684       0.26388875      -0.72472817
H       -0.30119812      -0.15999031      -1.65599656
H        0.75590688      -0.83322734      -0.38812006
H       -1.56275702      -0.87851512      -1.49530995
H       -0.79795647      -0.11891347      -1.44827080
H        1.23391438      -0.07611236      -1.19902444
H       -2.61033344      -0.67376894      -1.65275908
H       -1.47871828      -1.24436724      -2.45051336
H       -0.78639537      -0.69374418      -0.93747199
H       -0.20003171       0.91285014      -0.66479802
