21
Properties=species:S:1:pos:R:3 pbc="F F F"
H        0.00000000       0.00000000       0.00000000
H       -0.43620220       0.58582085      -0.72101700
H       -1.39503264       0.43434006      -0.79690188
H       -1.62447917      -0.27473986      -0.17030716
H       -0.40149829       0.29845181       0.89613026
H       -0.82833099      -0.40459591      -0.54944515
H       -0.19330573       0.94131935       0.12366599
H       -1.82773256       0.73279190       0.08458614
H       -0.86391050      -0.56426483       0.46374965
H       -1.49545908       0.04563522       0.88473558
H       -0.74060082      -0.49897972       0.38805994
H       -1.03102529       1.24690342      -0.32451200
H       -1.73781884       0.97473294       1.04629087
H       -1.76852405       0.95229214       1.11160493
H       -2.29910469       0.77412325       2.18973160
H       -2.29910469       0.77412325       2.18973160
H       -2.29910469       0.77412325       2.18973160
H       -2.29910469       0.77412325       2.18973160
H       -2.29910469       0.77412325       2.18973160
H       -2.29910469       0.77412325       2.18973160
H       -2.13218045       0.58935225       3.13103771
