21
Properties=species:S:1:pos:R:3 pbc="F F F"
H        0.00000000       0.00000000       0.00000000
H        0.75529516      -0.29845181       0.62751859
H        0.94207984      -0.28155282      -0.32793254
H        1.30765700      -1.02099967       0.15197185
H        0.14972603      -0.59686136      -0.79784411
H       -0.57826126      -0.79161996      -0.10111785
H        0.98558551      -1.18820977      -0.68026960
H       -0.26407069      -1.56622207       0.39821854
H        0.66169238      -1.25061321       0.91573298
H       -0.17895523      -0.62411839       0.79636407
H        0.79592377      -1.77140057       0.07602257
H       -0.01435924      -1.53902841      -0.52149749
H        0.53640801      -1.25091362       0.85415208
H        0.08683705      -0.47892374      -0.98279047
H        0.05782840      -2.21891856       0.87205756
H       -0.80569279      -2.29418826       0.92516840
H        0.72510648      -3.08131313       0.41013741
H        0.78118718      -3.05262756       0.44306403
H        1.75747550      -2.58011699       0.99815017
H       -0.22512639      -3.59475565      -0.15373802
H        1.75747550      -2.58011699       0.99815017
