21
Properties=species:S:1:pos:R:3 pbc="F F F"
H        0.00000000       0.00000000       0.00000000
H        0.50912565      -0.18477097       0.80914259
H       -0.07084239       0.11368084       1.60153604
H       -0.46219969      -0.20162767       0.76758099
H       -0.80223399       0.57297444       0.28547189
H        0.83888334       0.46354809       0.36704469
H        0.89291781       0.60962808       1.33350658
H        0.60914636       1.42610049       0.78017986
H       -0.83820319       0.62639034       1.30976534
H        0.04703909       1.19648695       1.60760772
H       -0.41697526       1.40828800       0.77117521
H        0.10735840       1.06119752       0.02776188
H        0.78619522       0.57722890       1.27914882
H       -0.79276764       0.81419402       1.18511343
H       -0.07190430      -0.04681957       0.06814092
H       -0.63747954       0.68861926       1.21151733
H       -0.03457284       0.16361248       0.72271335
H       -0.01908118       0.13319799       0.66140974
H       -0.14271069      -0.03692561       0.66112059
H       -1.77610636       1.11508453      -0.55296731
H       -1.77610636       1.11508453      -0.55296731
