21
Properties=species:S:1:pos:R:3 pbc="F F F"
H        0.00000000       0.00000000       0.00000000
H       -0.32486421      -0.96807545       0.10303906
H        0.53533256      -0.72254789      -0.49463865
H       -0.19768734      -0.39891118       0.92472351
H        1.00206280       0.05205423      -0.13378495
H        0.66542196      -1.53620863       0.02410385
H        0.53004038       0.28166777       0.74814266
H        1.42079186      -0.84055597      -0.10721517
H        0.15621887      -1.30556810       0.89671421
H        0.70469046      -0.52329808       1.39755130
H        1.22271228      -1.27201676       0.84444153
H        1.45625782      -0.25910622       0.75050193
H        0.58101553      -1.55282092       0.06326620
H        2.26958179      -1.15431297      -0.69478601
H        1.99066567      -2.09641671      -0.99138391
H        2.62855554      -1.87857819      -0.28874338
H        1.95471787      -2.64994669      -0.22349538
H        1.28429914      -1.41850483      -0.80767763
H        2.32131410      -1.17711627      -0.63315314
H        1.85354924      -3.12595749      -1.28356946
H        1.43719172      -2.24926805      -1.61731493
