12
Properties=species:S:1:pos:R:3 pbc="F F F"
H        0.00000000       0.00000000       0.00000000
H        0.80713278      -0.08439321       0.53802919
H        0.75981861      -0.57944131      -0.35975289
H        0.49981439       0.79439902       0.41525859
H        1.46449804       0.67639095       0.47459161
H        1.62686920      -0.17334822      -0.07307070
H        1.27739143      -0.08895501      -0.97794861
H        1.71840179       0.67545092      -0.54128307
H        0.07910101       0.89468008      -0.49660301
H        0.92282724       0.87686765      -1.08066869
H        0.25098115       0.04588097      -0.94164038
H        0.98460358       1.28629100      -0.11344260
