21
Properties=species:S:1:pos:R:3 pbc="F F F"
H        0.00000000       0.00000000       0.00000000
H        0.80713278      -0.08439321       0.53802919
H        1.46078146      -0.64061451      -0.02471870
H       -0.72734034      -0.39891118       0.60429287
H       -1.01481640      -1.17351329       0.08911324
H        0.65015513      -0.57944131       1.42324626
H        1.15482247      -1.41117239       1.38330531
H       -0.82328266      -1.92717397       0.67509216
H        0.94743615      -0.90480638      -0.87324870
H        0.00185430      -0.50589520      -0.88154662
H       -0.19816113      -2.51036477       0.20907444
H       -0.60421902      -1.29152143      -0.78584087
H        0.73923349      -2.52909064       0.74299204
H       -0.10183966      -2.18620157      -0.80789793
H       -0.29946518      -0.73126340       1.47595143
H        1.42024183      -2.16323853       0.06793362
H        0.98398960      -1.97846758      -0.78271592
H        1.62863696      -1.46184897       0.53419244
H        0.68315345      -1.97331190       1.54050434
H       -0.33880013      -1.58008349       1.44506991
H       -0.01596445      -2.20808125      -0.75638485
