20
Properties=species:S:1:pos:R:3 pbc="F F F"
H        0.00000000       0.00000000       0.00000000
H        0.88292891      -0.28314662      -0.29719594
H        1.10464609      -0.92601418       0.47149560
H       -0.32715181      -0.43977645       0.80475414
H        0.39359054      -0.99555528       1.15073299
H        1.88419008      -0.54755998       0.91550523
H        2.13113713       0.30123913       0.50731629
H        1.99686623       1.03305030       1.13539636
H        1.48664975       0.46909624      -0.34155792
H        1.33085203       1.64295030       0.77137995
H        0.58203709       1.65984929       1.39351451
H        1.66416359       0.62368834       1.95380497
H        0.72330785      -0.62970316       2.05115652
H        1.57663798      -0.33677453       1.81997216
H       -0.17783231       1.25048733       0.94286811
H        0.77291119       0.97077882       2.13617325
H       -0.44181883       0.29214627       1.36241651
H        0.95562822       1.32673860      -0.15237643
H        0.24295264       0.16775936       2.11669731
H        0.08248306       1.01761651       0.10477103
