20
Properties=species:S:1:pos:R:3 pbc="F F F"
H        0.00000000       0.00000000       0.00000000
H        0.02715597      -1.02162731       0.09414954
H        0.24484433       0.25064358      -0.90845472
H       -0.92414576      -1.35397947       0.28880525
H       -0.53037208       0.66000557      -1.33215654
H       -1.28649020      -1.82364047      -0.48332548
H       -0.90251714       0.31530851       0.18467337
H       -0.59508145      -1.84053946      -1.16869354
H       -2.05825138      -1.32466078      -0.80498505
H       -1.25601685       0.71068221      -0.68490654
H       -1.83614540      -1.02620900      -1.76149917
H        0.24404407      -1.38747942      -0.83989310
H       -0.81840837       0.10422677      -2.07794857
H       -0.16922295      -0.69017226      -2.10645127
H        0.55502826      -0.63401705      -1.30868316
H       -2.22248864      -0.42303669      -0.23557526
H       -1.45478797      -0.54233390       0.29767922
H       -1.74857414      -0.05697274      -1.73030102
H       -0.90237194      -1.37087846      -1.96433914
H       -1.96985984       0.29011774      -0.84790558
