21
Properties=species:S:1:pos:R:3 pbc="F F F"
H        0.00000000       0.00000000       0.00000000
H        0.12256700       0.83228827       0.37498182
H       -0.72734034      -0.39891118       0.60429287
H        0.88656050      -0.49504808       0.14920373
H       -0.32576838      -1.21538353       1.07909465
H        1.04942727       0.88296491       0.66895950
H        0.68301761      -1.23319602       0.89105868
H        1.18940163      -1.03843749       1.76224661
H        1.51810908       0.11485198       0.57018965
H       -1.04851460       0.32363671       1.25858295
H       -0.49855351       0.98376906       1.10936844
H        1.67934227      -0.20670646       1.63480008
H        0.07115024       1.14343798       1.94797873
H        1.01432216       1.11257839       1.66864395
H       -0.81526750      -0.04221538       2.18867540
H       -0.42507839      -0.98431909       2.07241297
H        1.45971274       0.12564573       0.68895185
H        1.09154153      -0.99223173      -1.13768470
H        1.09154153      -0.99223173      -1.13768470
H        1.09154153      -0.99223173      -1.13768470
H        1.09154153      -0.99223173      -1.13768470
