21
Properties=species:S:1:pos:R:3 pbc="F F F"
H        0.00000000       0.00000000       0.00000000
H       -0.33100656      -0.58582085      -0.77496612
H       -0.08867799      -0.15433127      -1.67408657
H       -0.93681598       0.04042731      -2.21819592
H       -1.71317768      -0.14434366      -1.66035807
H       -1.35557604      -0.53240496      -0.74798685
H        0.51304656       0.77136850      -0.44169882
H       -1.63066721       0.11046261       0.00325876
H       -0.96697634       1.05804384      -2.34808350
H       -1.83676875       1.35649562      -1.89232981
H       -0.76766121       0.40936196       0.43724135
H        0.07315183       1.60309958      -0.19114536
H       -2.29683352       0.60283494      -1.48196793
H        0.35483390       0.69446784      -1.49830770
H       -1.58322024       1.99237001      -1.19991541
H       -1.89602900       1.64527953      -0.34566730
H       -0.13942543       1.44812846      -1.86676967
H       -2.27511215       0.76543188      -0.51952034
H       -1.03323698       1.48561060       0.18670434
H       -0.89335829       0.53854871       0.36438003
H       -0.30216083       2.01246166      -0.99091041
