21
Properties=species:S:1:pos:R:3 pbc="F F F"
H        0.00000000       0.00000000       0.00000000
H        0.85755634      -0.19475858       0.52914101
H       -0.53313851      -0.81366080      -0.04219427
H       -1.43879652      -0.72470582       0.43235230
H       -1.45192897       0.23095948       0.80632448
H        0.84169436      -1.14182043       0.75471383
H       -0.05895561      -1.56732154       0.35176903
H       -1.48730147      -1.41020000       1.12213910
H        0.80581188      -1.23077548       1.77653742
H       -0.06700468      -1.69432354       2.05337358
H       -0.62662894      -1.78327858       1.19766831
H        0.82010025      -0.28867179       2.18342853
H       -0.07791001      -0.12900285       2.65396786
H       -0.53271663       0.63587439       0.50984079
H        0.88275188       0.37241083       1.47131515
H       -1.48730147      -0.96592605       1.92895913
H       -1.48584807       0.11295138       1.77223563
H        0.06244433       0.98712540       1.52176809
H        0.92763972      -0.09725019       0.61957312
H       -0.20942825       1.11701012       0.33283997
H       -0.20942825       1.11701012       0.33283997
