21
Properties=species:S:1:pos:R:3 pbc="F F F"
H        0.00000000       0.00000000       0.00000000
H       -0.30820453      -0.91843063       0.09775501
H        0.91605562      -0.05341591      -0.45968771
H       -0.53146905       0.33235219      -0.81265402
H        0.87116784       0.41624510      -1.31142974
H        1.10638559      -1.00047779      -0.58179092
H       -0.07657123       0.74859726      -1.52275085
H       -1.16567087      -1.04281747      -0.45233881
H        1.05111527      -0.26924908      -1.97909546
H       -1.25893795      -0.33789375      -1.08630204
H        0.32297498      -1.58629870      -0.27129847
H       -1.13635433      -0.56750727      -2.07906318
H        1.23062587      -1.16014671      -1.58796895
H       -0.40965110      -0.01172847      -2.41233969
H       -0.43177274       0.24961755      -2.27966046
H       -0.00544441      -2.08527851      -1.04020739
H        0.53736341      -1.82108665      -1.87019908
H       -0.96951872      -1.75189734      -1.09014034
H       -0.07852352      -1.32603860      -2.52513003
H       -0.98611420      -1.35298610      -2.03561306
H        0.23137867      -0.35820407      -2.59019518
