20
Properties=species:S:1:pos:R:3 pbc="F F F"
H        0.00000000       0.00000000       0.00000000
H       -0.96783787       0.05067664       0.09371616
H        0.17261998      -0.95433736      -0.08662277
H       -0.68827379      -1.51055861      -0.03367352
H        0.24232857       0.43148959      -0.89912045
H       -1.42648339      -0.81374186       0.11737917
H       -0.57312942       0.80994380      -1.27310121
H       -1.38547432       0.58033025      -0.68940842
H        0.57084262      -1.11400628      -1.01895773
H        0.65518337      -0.18659937      -1.45038199
H        0.03541917      -0.24001528      -2.26669264
H       -0.43563807      -1.15160799      -2.28737450
H       -1.99176407      -0.06253731      -1.21138346
H       -0.70763677       0.45680147      -2.14163995
H       -1.49706006      -0.01520634      -2.09308648
H       -0.16947708      -1.65078092      -1.56051660
H       -2.00640011      -0.94238496      -0.79459238
H       -1.63923144      -1.63920164      -1.45258760
H       -1.44473767      -0.99193907      -2.18966293
H       -0.82243967      -1.98021960      -0.87597919
