21
Properties=species:S:1:pos:R:3 pbc="F F F"
H        0.00000000       0.00000000       0.00000000
H        0.30968034       0.89379078      -0.23086154
H       -0.09768263       1.25964284      -1.09892344
H       -0.59378529      -0.29845181      -0.78209299
H        0.72715116      -0.63587439       0.12237594
H        0.68952918      -1.29695702      -0.59149754
H        1.48902297      -1.24628043      -1.14494348
H        2.10437989      -0.60341287      -0.63368911
H       -0.15214628      -1.11492419      -1.21987343
H        1.32444394       0.87597835      -0.38337889
H        1.50318348       1.15912497      -1.29767704
H       -0.65431428       0.48827434      -1.48424911
H        1.58406520      -0.07965308       0.02419267
H        2.19474316       0.03246152      -1.36550820
H       -0.23393080       0.17296582      -2.30395579
H        1.93099713       0.28243560      -1.61660504
H        0.61898994       0.69891739      -2.52582312
H        1.26276886      -1.01666689      -2.11932039
H        1.69135737      -0.10507423      -2.31587720
H        0.19181633      -0.88590115      -2.12871838
H        0.69721329       1.38402975      -1.73609877
