20
Properties=species:S:1:pos:R:3 pbc="F F F"
H        0.00000000       0.00000000       0.00000000
H       -0.30729049       0.46966103      -0.79564559
H       -1.13274407       0.00000000      -1.01036799
H       -1.30663204      -0.66108263      -0.31697512
H       -1.89171600       0.60990006      -1.01702833
H       -0.66743207      -0.69681674       0.34972098
H       -0.98776639      -0.41367012       1.22452080
H       -1.95148110      -0.32927692       1.11410046
H        0.00000000       0.72254789       0.72886789
H       -0.29179332       1.58019030       0.24655044
H       -0.50440842       1.45904386      -0.60699224
H       -1.49044538       1.52149272      -0.76943088
H       -2.16190886       0.59982079       1.31549203
H       -1.33739376       1.09880054       1.45425391
H       -1.89194369       1.81994450       0.12669939
H       -2.18079281      -0.48894584       0.12655509
H       -0.56018865       0.42855459       1.44743347
H       -2.53334236       0.99873197       0.44587666
H       -1.04922235       1.81728554       0.71390975
H       -2.51876736       0.27754787      -0.27562928
