21
Properties=species:S:1:pos:R:3 pbc="F F F"
H        0.00000000       0.00000000       0.00000000
H       -0.72715116       0.63587439       0.12237607
H       -1.53474522       0.19609794       0.44245327
H       -0.41842175      -0.89468008       0.27891707
H       -1.39865482      -0.76436496       0.52642560
H        0.70821118       0.21783850       0.63169944
H        0.45584682       1.03149927       1.10321748
H       -1.46882141      -0.99397850       1.52426243
H       -0.45299241       1.36385143       0.76134437
H       -1.05520046       1.34695244       1.52627623
H       -0.58238345       1.09630883       2.33971500
H        0.75501812      -0.49124143       1.29733872
H        0.55733079      -0.09233025       2.22206211
H        0.36135304       0.90592408       2.08639741
H       -1.79676747       0.58735079       1.33337498
H       -0.30899173      -0.49124143       2.60111237
H        0.12722743      -1.22703230       1.08211875
H       -0.96917039       0.20162874       2.66106749
H       -0.64159942      -1.21378934       1.95255971
H       -1.74967062      -0.02798480       2.03543115
H       -1.48937523      -0.92266488       1.60517800
