21
Properties=species:S:1:pos:R:3 pbc="F F F"
H        0.00000000       0.00000000       0.00000000
H       -0.49101692      -0.19475858      -0.87994057
H       -0.08869940       0.47548735      -1.54494798
H        0.66269749       0.68549418      -0.19746022
H        0.61159492       1.01784635      -1.16712749
H        0.49718052      -0.81366080       0.19704963
H        0.38338810      -0.08073395      -2.26680326
H        1.38915467       0.11402462      -2.20494342
H        1.55997300       0.81864220      -1.40590501
H        1.54161143       0.30703998      -0.01761661
H        2.16131687       0.38715261      -0.69490135
H        1.81998539      -0.71770638      -1.93910646
H        0.25582284      -1.44953513      -0.49970794
H        1.07207572      -1.66737366      -0.98379302
H        1.45313573      -0.62888980       0.18866053
H        1.02097309      -1.33502150      -1.95346022
H        2.32946110      -0.55803746      -1.06259966
H        0.24944839      -1.07898831      -2.06964254
H       -0.26902124      -1.09588730      -1.24564946
H        1.90339601      -1.20090508      -0.38546318
H        1.76778507      -1.16839397      -0.52003801
