21
Properties=species:S:1:pos:R:3 pbc="F F F"
H        0.00000000       0.00000000       0.00000000
H        0.49089283       0.77460212       0.32722577
H       -0.14838916       1.50641334       0.38912773
H       -0.07950888       1.80486512       1.36867142
H       -0.98101741       0.29845181      -0.04307186
H        0.04850494      -0.68549418       0.68978679
H        0.89988911       0.54498857       1.24009132
H       -0.84546101      -0.90333271       1.00827074
H        0.66772979      -0.31964210       1.42193210
H        0.58716720       1.21904421       1.88411379
H       -1.50229025      -0.28736904       0.61905527
H       -0.84546101      -0.68549418       1.95727396
H        0.09178531      -0.26622617       2.26972842
H       -0.97801900       1.68685699       1.72478175
H       -1.53507221       1.37154841       0.99106973
H        0.05363172       0.66282290       2.56181693
H       -1.78277826       0.46489149       1.24538422
H       -1.44472468       0.06816649       2.10197878
H       -0.93058497       1.06150866       2.39933872
H       -1.10681534       1.20796156       0.17542368
H       -0.88008094       0.86256552       2.42358637
