21
Properties=species:S:1:pos:R:3 pbc="F F F"
H        0.00000000       0.00000000       0.00000000
H       -0.12270200      -0.91159266      -0.45526573
H       -0.79538780       0.61471456      -0.20690145
H       -0.96005720      -0.92849165      -0.95186573
H       -1.33469820       0.08701736      -0.82232076
H       -1.38119256       0.49637932      -1.70454645
H       -0.79980659      -1.05287850      -1.95793319
H        0.61241353      -0.99598587      -1.08815110
H        0.87157917       0.43148959      -0.32785726
H        1.29699445      -0.18322498      -1.03104401
H        1.28202569       0.28643605      -1.88383663
H        0.65459728      -0.12292591      -2.50578308
H        0.20039317      -0.87033439      -1.96875143
H        0.59689212       1.28913200      -0.82011783
H       -0.79125547       1.27098143      -1.70972347
H       -0.44385001       1.34652579      -0.74442774
H       -0.10000145       0.46026489      -2.70207429
H       -0.03712344       1.15297329      -2.31422329
H        0.87336111       1.21384299      -1.72186887
H       -1.07601726      -0.17618912      -2.41449356
H       -0.21648091       0.25530046      -2.77273655
