21
Properties=species:S:1:pos:R:3 pbc="F F F"
H        0.00000000       0.00000000       0.00000000
H        0.17388797      -0.66108263       0.69339287
H       -0.04571859      -0.43977645      -0.86750644
H        0.15075311      -1.58848953       0.25441104
H        0.10287005      -1.44519687      -0.65416598
H       -0.65108669      -2.14471078       0.57220763
H       -0.91999018      -0.28829566      -1.26846004
H       -1.47698045       0.26792565      -0.60989833
H       -0.88183063       0.46268421       0.20323741
H       -1.22916770      -2.32948184      -0.18920088
H       -0.79867959      -1.92011988      -0.96066946
H       -1.41586256      -1.17271137      -1.29799664
H       -1.13438559      -1.61701357       1.23252487
H       -0.63793075      -0.67889506       1.32105279
H       -2.30717444      -0.25802591      -0.31413376
H       -2.24939227      -1.16961861      -0.78209090
H       -2.17670965      -1.85511279      -0.09443122
H       -2.14570546      -1.44575083       0.78847444
H       -2.20558476      -0.37603402       0.64701891
H       -2.06450033      -1.42225504       0.84486568
H       -1.94285965       0.13505751      -0.32777941
