21
Properties=species:S:1:pos:R:3 pbc="F F F"
H        0.00000000       0.00000000       0.00000000
H        0.46564069       0.84879911      -0.10382564
H       -0.56044048       0.05067664      -0.79460645
H        0.58939195      -0.77460212      -0.02587739
H        1.45092332       0.58460724      -0.21671708
H        0.14812505       1.37475061      -0.92594647
H       -0.33640134      -0.76579577      -1.37469542
H       -0.39861566       0.86714906      -1.39503086
H        0.41982985      -1.19728541      -0.83132178
H        1.80075860       0.91695940      -1.12252128
H        0.04500714      -0.43344358      -2.26766443
H        1.21932364      -1.14660883      -1.38476777
H        1.50773776      -0.45929360      -0.09855822
H       -0.03652629       0.58818376      -2.21331477
H        1.04088926       1.32632136      -1.57316768
H        1.04526925      -0.66305709      -2.27644229
H        0.18704265       1.30850887      -1.00399947
H        0.03240395       1.72467506      -0.67445523
H        0.01264504       1.72467506      -0.65889961
H        0.00229770       1.60840082      -0.71410906
H        1.18134916       0.32284755       0.41043133
