21
Properties=species:S:1:pos:R:3 pbc="F F F"
H        0.00000000       0.00000000       0.00000000
H       -0.02074104      -0.97334045      -0.01546210
H        0.66320157      -1.40482998      -0.64741397
H        0.66162854       0.28314662      -0.65584797
H        1.08287728      -0.55441535      -1.07341623
H        0.25211653       0.34709048       0.87408602
H        1.16183209       0.81063855       0.76985288
H        0.35512841      -0.42751163       1.45498276
H        1.32773447      -1.93252718      -0.16992819
H        1.34355295      -0.44532409       1.73070645
H        1.42790675       0.72168356      -0.21737313
H        2.21677685      -1.43747914      -0.30354983
H        0.28434065      -1.27179229       0.91790569
H        1.77000332       0.34928605       1.36356115
H        2.43816614       0.00219557       0.74618959
H        1.07842541      -1.87911129       0.82421249
H        2.19120574       0.22003406      -0.17011696
H        1.77564549      -1.35315967       1.36327004
H        1.98113704      -0.59362674      -0.66193825
H        2.46668839      -1.10251606       0.72475749
H        2.21715426      -1.46836817      -0.20109820
