20
Properties=species:S:1:pos:R:3 pbc="F F F"
H        0.00000000       0.00000000       0.00000000
H        0.75986940       0.40936196      -0.45064643
H        0.36967397       1.18073046      -1.00387526
H        0.58590585       0.99595952      -1.93509173
H        1.18487024      -0.22651243      -1.05322325
H        1.11604738       0.11927015      -1.99583411
H       -0.02032829      -0.89379078      -0.38572752
H        0.70857960      -1.04527164      -1.01326859
H       -0.85205346       0.49504808      -0.28680325
H       -0.59544164       1.19762945      -0.87609738
H        0.33581641      -1.26311016      -1.88599694
H        0.52844954      -0.52359742      -2.53876495
H       -1.33230865      -0.13030031      -0.76286232
H       -0.68556762      -1.28092265      -1.78709590
H       -0.91426891      -1.01817763      -0.87431920
H       -0.34909105      -0.06004933      -2.80024052
H       -1.03710532      -0.54911143      -2.32462215
H       -1.45146561       0.08676296      -1.71467948
H       -1.02352500       1.00287092      -1.78831315
H       -0.26219177       0.87795144      -2.39862752
