21
Properties=species:S:1:pos:R:3 pbc="F F F"
H        0.00000000       0.00000000       0.00000000
H        0.54628479      -0.64623839      -0.66938484
H        0.80149937      -0.06304759      -1.40614462
H        0.36206064       0.86435932      -1.39457321
H       -0.16381408       0.87984765      -0.38352826
H       -0.18443432       0.88217175      -0.52604002
H        0.08316474       0.11485762       0.58841717
H        0.06218604      -0.40852219       0.19034812
H        0.97136903       0.80733687      -1.15308356
H        0.07682300      -0.43491322       0.22711766
H        0.91979265      -1.07235634      -0.45664370
H        0.91979265      -1.07235634      -0.45664370
H        0.91979265      -1.07235634      -0.45664370
H        0.11301519       1.08401299       1.43846965
H        0.11301519       1.08401299       1.43846965
H        0.11301519       1.08401299       1.43846965
H        0.11301519       1.08401299       1.43846965
H        0.11301519       1.08401299       1.43846965
H        0.11301519       1.08401299       1.43846965
H        0.11301519       1.08401299       1.43846965
H        0.11301519       1.08401299       1.43846965
