20
Properties=species:S:1:pos:R:3 pbc="F F F"
H        0.00000000       0.00000000       0.00000000
H        0.47219095      -0.55577880       0.64514065
H        0.17191106      -0.43777069       1.56381738
H       -0.78398478       0.31530851       0.48374510
H       -0.64141530       0.19092160       1.49246991
H       -1.61086762      -0.09405345       0.17270106
H        0.49200928      -1.50284076       0.41988093
H       -1.41224766      -0.33677560       1.76708627
H       -2.03420353      -0.47250766       0.96366262
H       -1.37801099      -0.82660443      -0.58444762
H        0.10366374      -2.02879238       1.21101093
H       -0.15445834      -1.59179580      -0.37226212
H       -0.74780649      -2.37588286       0.89071798
H       -0.41241965      -0.69681674      -0.63061905
H       -0.94828302      -2.17761660      -0.08945450
H       -1.68907070      -1.72128451      -0.18933579
H       -0.16359001      -1.35854650       1.94085312
H       -2.03759313      -1.42684507       0.77055728
H       -1.07160532      -1.24836826       2.09310079
H       -1.52264118      -1.94439328       1.40721750
