20
Properties=species:S:1:pos:R:3 pbc="F F F"
H        0.00000000       0.00000000       0.00000000
H       -0.37664786      -0.36585209      -0.88182342
H       -0.49922496       0.83173102       0.08401718
H       -1.23611724       0.88240767      -0.55039805
H        0.92494017       0.25064358      -0.17240725
H        0.94542509       1.27227092      -0.07658476
H       -1.20367265       0.12874699      -1.16603088
H       -1.04343820       1.69606853      -1.04928863
H        0.00154060       1.60462308       0.15133619
H       -0.91144717       0.54811513      -2.11622143
H        0.01913428       0.21576294      -2.39350152
H        0.31392780      -0.31517544      -1.56636572
H        1.13775194       0.00000000      -1.08889496
H        1.19150472       1.67118216      -0.98962289
H        1.29253483       0.93937093      -1.62389898
H        0.38421106       2.22740340      -1.29329824
H       -0.34608993       2.13232040      -0.58944011
H        0.59463120       1.06375778      -2.36604595
H        0.04871798       1.79591382      -2.16196680
H       -0.81912309       1.43187666      -2.01531625
