21
Properties=species:S:1:pos:R:3 pbc="F F F"
H        0.00000000       0.00000000       0.00000000
H       -0.41358426      -0.01689900      -0.88131911
H        0.82182598       0.61471456      -0.00721203
H        0.68470472       1.47235703       0.53957057
H       -0.62887782       0.58582085       0.56093717
H       -1.37577844       0.86896747       0.00413537
H       -0.15963247       1.42338276       0.92373544
H       -1.36763108       1.83820367      -0.08846958
H       -1.31174695       0.47814909      -0.92075318
H        0.13913479       0.42737493      -1.46907759
H        0.76025325       2.22601771      -0.07227004
H        0.92311966       0.74268341      -0.98533261
H        0.87431860       1.71455693      -1.01911497
H        0.07234257       1.94417048      -1.61697447
H       -0.40363124       1.19874346      -1.87370038
H       -0.65208209       2.21778178       0.49976912
H       -1.29553187       1.18184447      -1.48345852
H       -0.57076752       2.44315028      -1.08266222
H       -0.03619516       2.71282983      -0.15516171
H       -1.38870454       2.05853391      -0.95804584
H       -0.14487803       2.56115842      -0.21504879
