21
Properties=species:S:1:pos:R:3 pbc="F F F"
H        0.00000000       0.00000000       0.00000000
H        0.68725604      -0.43977645       0.53135377
H        0.64687997       0.51456094       0.72022128
H        1.37490296       0.11600235       0.12353948
H        0.83277255       1.12927556      -0.08033717
H        1.59264195       0.71991360      -0.53098357
H        0.06687850       0.60157835      -0.36843941
H        0.91849345       1.20005512       0.08430880
H       -0.17464384       0.32035726      -1.15376532
H       -0.16832739       0.26403812      -1.13322687
H        0.05695029      -0.79439902      -0.64731038
H       -0.22578542      -0.94587982      -1.56664431
H        0.92726856      -0.28314662       0.08978777
H        1.20049536       1.12548196      -0.09903106
H        0.43452489      -0.45083174      -2.17676020
H        0.03295293      -1.26730418      -1.70195842
H        1.26185250      -0.32644483      -1.58230186
H        1.48762012       0.77699578      -0.58197457
H        1.38658738       0.37640420      -0.91847587
H        1.06106973      -0.84781492      -0.44184721
H        1.39300585       0.42616093      -0.92115092
