21
Properties=species:S:1:pos:R:3 pbc="F F F"
H        0.00000000       0.00000000       0.00000000
H        0.63848275      -0.52769721      -0.51179713
H        0.16083315       0.08895500      -1.00972450
H        0.60932845      -0.19475858      -0.80256569
H       -0.75338376       0.82976490      -1.39075780
H       -0.90541631       0.71175683      -2.34523201
H       -1.54443216       0.67009598      -2.02484941
H       -0.71714795       0.51861519      -2.51547670
H       -0.91469908       0.33235219       0.32587031
H       -1.60648453       1.15809369      -1.27781034
H       -0.54788858       0.71080637       1.14457870
H       -1.17111802       0.31189519       0.43339735
H       -1.85309219       0.99842477      -0.29444146
H        0.50243849      -0.19644494      -0.78201270
H       -1.17643642       0.29143819       0.37439346
H       -1.71937668       0.84278518      -2.19208431
H       -1.93053961       0.53284419      -0.45947662
H       -1.45156550       0.62501872      -2.18746901
H       -1.73426676       0.62262982      -0.60210800
H       -1.70027018       1.00518239      -2.47127151
H       -1.50246716       0.80464476      -2.62894917
