21
Properties=species:S:1:pos:R:3 pbc="F F F"
H        0.00000000       0.00000000       0.00000000
H       -0.46163812      -0.66108263       0.54582143
H        0.64163029      -0.01689900      -0.73217887
H       -0.00677887      -0.89379078      -0.38620332
H        0.51192296      -1.77048016      -0.26095164
H       -0.39592409      -1.82389605       0.21474195
H        0.54746151      -0.82075155       0.64353293
H        0.32848084      -1.36034799       0.77481747
H        0.33674434      -0.32873043      -0.00685513
H       -0.26663673      -0.92057157       0.14197254
H        0.95451999       1.10074532      -0.30468681
H        0.49946126      -1.41846967       0.09391913
H        1.00650346       0.26318336      -0.89554346
H       -0.00526816       1.36493719      -0.55435312
H        0.48996779       0.45230490      -0.76518011
H        0.74179900       0.07120466      -0.54742759
H        0.48850763      -1.14613378       0.01753694
H       -0.21008722      -0.70768249       0.21311112
H       -0.24600542      -0.84440267      -0.44937253
H       -0.39915884      -0.80202562       0.12614864
H        0.43959779      -0.66220319      -0.48816395
