21
Properties=species:S:1:pos:R:3 pbc="F F F"
H        0.00000000       0.00000000       0.00000000
H       -0.02481474      -0.91159266      -0.47085762
H        0.75485337      -0.43977645       0.42994645
H       -0.81256860      -0.99598587       0.09516579
H        0.16280383      -1.68296123       0.17961437
H        0.24315806      -0.35537136       0.34897912
H        1.59126472      -1.11753869       0.08134174
H        0.67144215      -0.80627185       0.34094214
H        0.02815610      -0.93983066      -0.57874513
H        0.08883318      -0.46558058      -0.15919605
H        1.29283595      -0.84655905      -0.21447963
H        1.57160187      -0.73405540      -1.03888512
H        1.74752927      -0.55581975      -0.60612464
H        2.31588173      -1.38777709      -2.09414363
H        2.14271760      -1.65196896      -1.11764956
H        1.62483883      -1.13713348      -2.73265624
H        2.59866667      -2.18238735      -1.60763752
H        2.79205751      -2.23657608      -2.06485629
H        1.93292713      -1.83395028      -2.04501390
H        1.09368956      -0.26637059      -3.43224955
H        0.87894082      -0.43114418      -3.42185402
