10
Properties=species:S:1:pos:R:3 pbc="F F F"
H        0.00000000       0.00000000       0.00000000
H       -0.33100656      -0.58582085      -0.77496612
H        0.46652785       0.05704671      -0.83808553
H        0.94531655      -0.43800136      -0.07715678
H        1.28345871      -1.25166214      -0.49149597
H        0.62181187      -0.63923675      -0.39733166
H        0.05973822      -0.50803339      -0.47286078
H        0.87290782      -1.22563899      -0.77569795
H        0.70858800      -1.47520912      -1.10281050
H        0.28828633      -0.29234919       0.16704118
