21
Properties=species:S:1:pos:R:3 pbc="F F F"
H        0.00000000       0.00000000       0.00000000
H        0.58115071      -0.52769721      -0.57607329
H        0.85046792      -1.40754485      -0.25764397
H        0.76909792      -1.02274525       0.30308944
H        1.39702225      -1.07342184       1.04552054
H       -0.12875204      -0.63587439       0.72604924
H        1.31610858      -2.25634384      -0.36146960
H        0.72659582       0.72254789      -0.05750512
H        1.24575973      -0.25694942       1.64869249
H        0.37575799       0.43940127       0.80551380
H        1.15566456      -1.70929623       0.34876299
H        0.63166082       0.24203029       1.08127499
H        1.64044261       0.63359290      -0.51608437
H        1.84569263      -2.86624384       0.18224326
H        1.94210410      -1.62034118       1.00215709
H        0.70372808       0.54463792      -0.10623470
H        1.04140568       0.37892497       2.35718679
H        0.71301293       0.48991930      -0.59589195
H        0.30316210      -0.39469710       0.79873824
H        0.99855536       1.29577005       2.28039575
H        0.97660691       0.41592240       1.86392570
