21
Properties=species:S:1:pos:R:3 pbc="F F F"
H        0.00000000       0.00000000       0.00000000
H        0.36329272       0.89468008       0.34769225
H        0.69150454       0.49504808       0.57451963
H       -0.56599057       1.07945108       0.57208741
H        0.45469525       0.51194710       1.51881647
H       -0.03933264      -0.95566529       0.37212983
H       -0.35214135      -0.60857481       1.22637796
H        0.54120898      -0.29458266       0.78926551
H        0.17835355       0.82880747       1.14757895
H       -0.36129102       0.19663858       1.94637680
H       -1.00061584       0.94404709       1.65317321
H       -0.96900541       0.01689900       0.09382921
H       -1.08641315       0.49042982       0.67798215
H       -0.47246981       0.82278204      -0.07430744
H       -0.67181981       0.23978624       1.52258325
H        0.18701515       0.78138411       1.22418547
H       -0.98678124       0.73404843       0.86499709
H       -0.90652800      -0.21393871       1.26246071
H        0.17558181       1.28078520       1.10420656
H        0.14408171       1.30597401       1.02933252
H        0.02612704       1.17088318       1.08895802
