21
Properties=species:S:1:pos:R:3 pbc="F F F"
H        0.00000000       0.00000000       0.00000000
H        0.88292891      -0.28314662      -0.29719594
H        0.91700602      -0.61549878       0.67321873
H        0.45612431      -0.63587439       0.57937485
H        1.05539966      -0.02736336      -0.58915359
H       -0.54700017       0.79461014       0.13208480
H       -0.34372151       0.74393350       1.08296371
H       -0.13365282       1.55759430       0.59114242
H        0.54742938       0.87469923       1.67699885
H        0.81664848       1.64930129       1.15204787
H        0.26738816       2.08907771       0.47901690
H        0.02576952       0.62849659       0.34737432
H        0.75136608       2.14233971       0.39380646
H        0.50254160       0.40503821       0.82525682
H        1.07833433       1.09352255       0.39660668
H        0.36278936       0.86252874       0.99927783
H        1.33689725       0.91062045       1.03264093
H        1.04662395       0.40211773       0.70451772
H        0.16295457       3.49687243       0.79852122
H        1.29880488      -1.44778705       0.57390273
H        0.51278985       3.82922459      -0.10728300
