21
Properties=species:S:1:pos:R:3 pbc="F F F"
H        0.00000000       0.00000000       0.00000000
H       -0.50007260       0.47200781      -0.61275923
H       -0.89626163       0.37845421      -0.03935063
H       -1.09124398       0.99970502      -0.04697388
H       -0.17291053       0.89468008       0.47220069
H       -1.03607225       2.01208472      -0.20624495
H       -0.22687215       1.48438752      -0.32786644
H        0.52631927       1.17590117       0.90364891
H        0.15576446       0.54002678       1.54115486
H       -1.10691905       2.84381580       0.29501861
H        0.69610220       1.22657776       1.86107600
H        0.61826962       0.08895500      -0.81434244
H        0.91391623       0.27951586       1.92183578
H        0.37216687      -0.38156676       1.45542574
H       -1.16001725       1.03077030      -0.03189543
H        0.50753164      -0.05323794       0.60559374
H        0.25001824       0.55707854       1.68364847
H       -1.05843711       3.15912437      -0.62492216
H       -1.28316832       1.31557369      -0.35547763
H        1.09198093      -0.59653920      -1.31808448
H       -0.95545983       1.11985421      -0.72437292
