21
Properties=species:S:1:pos:R:3 pbc="F F F"
H        0.00000000       0.00000000       0.00000000
H        0.45279220       0.75366068      -0.41837266
H        0.46217802      -0.06000012      -0.95309591
H        0.83339506       0.25064358       0.43668216
H        1.45349598       0.00000000      -0.27092904
H        1.27839518       1.00430429      -0.86961365
H        1.56321263       0.19064349      -0.41695923
H        1.78848553       1.86264706      -1.27849352
H        1.39654505       1.03035879      -1.32340121
H        1.32208514       0.22314650      -1.31149328
H       -0.28699288      -0.48269629      -0.55626714
H       -0.19690624      -0.50806773      -0.13410389
H        0.32361698      -0.56301725       0.59837139
H       -0.29367024      -0.43225151      -0.27683377
H        1.05250728       1.61011088      -0.89285576
H        1.33291757       0.94099921      -0.95115513
H        0.41866538       0.36250660       0.69258440
H       -0.04489031      -0.17054015      -0.46780199
H        0.82589769       1.37532723      -1.28694069
H        1.42436576       1.12204504      -0.99965733
H        1.47119999       1.12204504      -1.13111866
