21
Properties=species:S:1:pos:R:3 pbc="F F F"
H        0.00000000       0.00000000       0.00000000
H       -0.43620220       0.58582085      -0.72101700
H       -0.09429649       0.36798236      -1.60628963
H       -0.70004535      -0.10167867      -2.20674586
H       -0.22792025       0.19475858      -0.98155254
H       -0.40494609      -0.85493571      -0.85562348
H       -1.22349238      -1.00641656      -0.35055280
H       -0.40106016       0.45395795      -1.15473020
H       -0.20994186      -0.34034663      -0.90634924
H       -1.13338447      -0.35372007      -0.91625851
H       -0.70710820      -0.26417741       0.30938780
H       -0.72706860      -0.26417741       0.25902513
H       -1.62385511      -0.72519547      -1.06803417
H       -1.59842896      -0.72519547      -1.08164263
H       -1.26974273       0.34131670      -0.87624401
H       -2.46316671       0.19141454      -0.58806640
H       -1.25611842       0.30146503      -0.96962982
H       -1.75760126      -0.06119788      -1.30771756
H       -1.09841621       0.35881817      -0.81462753
H       -0.90986109       0.28833091      -1.12279046
H       -1.76755571      -0.82436889      -0.55504990
