21
Properties=species:S:1:pos:R:3 pbc="F F F"
H        0.00000000       0.00000000       0.00000000
H        0.52691501       0.55577880      -0.60127473
H       -0.34846473       0.22342661      -0.18106487
H        1.02761233       0.99555528      -1.31117582
H        0.43249470       1.46521628      -0.70018131
H        0.96896297       0.49657556      -0.47712523
H        0.77401656       0.19263726      -0.93788016
H        0.77401656       0.55675936      -0.59522128
H       -0.26766649      -0.35967273      -1.15272212
H        0.64331901      -0.04436421      -1.28964174
H        0.79771256       0.47512013      -0.39443129
H       -0.10612547       0.76707149      -1.84794331
H       -0.10612547       0.76707149      -1.84794331
H       -0.10612547       0.76707149      -1.84794331
H       -0.10612547       0.76707149      -1.84794331
H       -0.10612547       0.76707149      -1.84794331
H       -0.10612547       0.76707149      -1.84794331
H       -0.10612547       0.76707149      -1.84794331
H       -0.10612547       0.76707149      -1.84794331
H       -0.10612547       0.76707149      -1.84794331
H       -0.10612547       0.76707149      -1.84794331
