21
Properties=species:S:1:pos:R:3 pbc="F F F"
H        0.00000000       0.00000000       0.00000000
H       -0.21671417       0.94706190      -0.06457304
H       -0.08025049      -0.46354809      -0.91214412
H        0.39391527       1.49998534      -0.76137620
H       -0.06220919       0.86411095      -0.18200141
H       -0.74685919      -0.72773993      -0.17786944
H        0.56072170       0.09223071      -1.38997829
H        0.23734103       0.43024269      -1.13199544
H       -1.44934225      -0.77841657       0.49444771
H       -2.04339194      -0.00704807       0.16976416
H       -0.91796333      -0.37950540       1.27664351
H       -1.22797632       0.25714380      -0.39470363
H        0.26001674       1.37127650      -0.29715082
H       -0.70737505       0.21932197       0.04478660
H       -1.03692651       0.10143107       0.43246228
H       -0.22764491       0.94618797       0.13783276
H       -1.14990544       0.31774256      -0.88483906
H       -1.08794558       0.34234783      -0.18964097
H       -1.31729996      -0.83457178      -0.57491601
H       -1.25892186      -1.37622273      -0.48213702
H       -1.44092655      -1.85797358      -0.28165740
