21
Properties=species:S:1:pos:R:3 pbc="F F F"
H        0.00000000       0.00000000       0.00000000
H        0.65604281      -0.46966103       0.54505712
H       -0.07676458      -0.76811284       1.19869590
H        0.30572039      -0.41898438      -0.36200798
H       -0.94291937      -0.08439321       0.22768791
H       -0.90872103      -0.87879223      -0.42122233
H       -0.56994700      -1.82089591      -0.19539791
H       -0.88470638      -0.15339828       1.04809713
H       -0.52414936      -0.85576171       0.75961483
H       -0.22946158      -0.85282046      -0.21034700
H       -0.01211828      -1.26511717       0.37731314
H       -0.73277396      -0.68403363       0.57096499
H       -0.71972698      -0.94501996       0.50522906
H       -0.71518630      -2.26500511      -0.37336552
H       -0.62147856      -0.98765332       0.36670619
H        0.31087387      -0.82167161       0.62840551
H       -0.38751650      -0.83400333       0.49822688
H       -0.08356088      -1.20949578       0.79057753
H        0.15732031      -1.23635697       0.73589891
H        0.51795566      -1.15143549       0.70766765
H        0.54247171      -1.15143549       0.68905437
