21
Properties=species:S:1:pos:R:3 pbc="F F F"
H        0.00000000       0.00000000       0.00000000
H       -0.49101692      -0.19475858      -0.87994057
H       -0.11968407       0.39106226      -0.12346870
H       -1.42167163      -0.49321038      -1.19320118
H       -1.07293367      -0.02354935      -0.41483027
H       -0.51059258      -0.97948754      -1.25138676
H       -1.20714641      -0.51102281      -0.18971443
H        0.08982861      -0.87228537      -2.32738876
H       -0.64920235      -0.85355943      -3.11327028
H       -0.68375659      -1.24367940      -0.27489263
H       -0.60188812      -1.34860754      -4.01105213
H       -0.04015023      -0.71794271       0.12223408
H       -0.36733362      -1.21937585      -1.54088271
H       -0.68594182      -1.42702270      -0.04575345
H        0.57594985      -0.05862457      -2.55033088
H        0.89330488      -0.64444542      -1.76967502
H       -0.62469292      -0.55420852      -3.36164165
H       -0.39114559      -0.96399379      -3.02525949
H        0.74078465      -0.73932779      -1.30305433
H        0.61921251      -0.29955134      -0.44289279
H        0.57471585      -0.05686009      -0.24241701
