21
Properties=species:S:1:pos:R:3 pbc="F F F"
H        0.00000000       0.00000000       0.00000000
H        0.12529835      -0.08895500      -1.01474690
H        0.31913251       0.76868743      -0.48540598
H       -0.05344114       0.19419162      -1.92904496
H        0.14116268       0.83705920      -1.15304589
H        0.19794531       1.72915030      -0.58974010
H       -0.28494993      -0.47200781      -0.73780078
H        0.19358185       1.12159848      -1.56542444
H        0.93506664       2.36502457      -0.57032996
H       -0.39332366       2.10760450      -1.26445067
H        1.35127723       1.67277074      -1.01292610
H       -0.05647665       0.19823813      -1.48069656
H       -0.13118050       1.13952899      -1.04665542
H       -0.30694509       0.49394682      -0.16776374
H        1.24354482       2.74347878       0.27209187
H        0.37116683       1.97122252      -0.95264441
H        1.06706512       1.14513898      -1.09761107
H        1.52570045       2.84872913      -0.54244214
H       -0.92117512       1.01394713      -1.10696518
H        1.83463418       2.07736063      -1.14483285
H        1.51275957       2.21285486      -1.27970541
