21
Properties=species:S:1:pos:R:3 pbc="F F F"
H        0.00000000       0.00000000       0.00000000
H        0.88791460       0.34709048      -0.19798161
H        0.41013938      -0.03136373       0.56133670
H        0.41013938       0.58335084       1.38319433
H        0.14133590       0.77858007      -0.75454336
H       -0.22697932       0.38859224       0.60250694
H        1.07168603       1.22693813       0.17639388
H        1.22026539       0.64447141       0.78732359
H        0.33159018       1.49112999       0.83653367
H       -0.41437876       1.10690892      -0.09748989
H       -0.31688830       1.25737786       0.31016189
H        0.62268937       1.35795295       0.83285350
H       -0.07953838       1.01237965       0.14860967
H       -0.16359672       1.16559505      -0.66948152
H        1.28966188       1.54785609       0.77166337
H        0.31509948       0.99978697      -0.20300832
H       -0.68257010       0.92261660       0.71251899
H        0.33931261       1.30788159      -0.51883310
H        0.42732921       1.15143549      -0.76580763
H        0.38743225       0.06158423      -0.59241140
H        0.73282111       0.86690521      -0.89795530
