21
Properties=species:S:1:pos:R:3 pbc="F F F"
H        0.00000000       0.00000000       0.00000000
H        0.35866648      -0.83756196      -0.47241095
H        1.12538290      -1.48042953      -0.70086503
H       -0.39454409      -0.49897972       0.73716694
H       -0.11821932      -0.00583094      -0.30251580
H        0.29702690       0.07795271       0.93008256
H        0.48610091      -2.21224070      -0.63896310
H       -0.05174866      -0.07122633       0.80730987
H        0.28704771      -1.33336449      -0.44845760
H        0.87091088      -2.41907477      -0.74829811
H        0.40853250      -0.41199031      -1.03919995
H        0.70423877      -1.65866518      -0.49870259
H       -0.37832862      -0.21770193      -0.72733998
H        0.14168853      -1.44555938      -1.66394591
H        0.13534015      -1.46851349      -1.62135375
H        0.07749939      -1.44555938      -1.63243711
H        0.19019817      -1.49019444      -1.60451758
H        0.15593880      -1.46851349      -1.63058257
H        0.13534015      -1.46851349      -1.62135375
H        0.15108153      -1.49019444      -1.58781004
H        0.17049329      -1.49019444      -1.59650707
