21
Properties=species:S:1:pos:R:3 pbc="F F F"
H        0.00000000       0.00000000       0.00000000
H       -0.04850490       0.68549418       0.68978679
H       -0.14654261       0.28314662      -0.92000765
H       -0.19766939       1.00569451      -0.19293511
H        0.20055324       0.84602559      -1.12527013
H       -0.02437208      -1.02595341      -0.01223020
H        0.92025232       0.49893510      -0.56883293
H       -0.18024588      -0.14623684       0.20098343
H        0.01708544       1.21951854       1.15385950
H        0.64651895       0.06744552      -1.45889521
H       -0.02437208      -0.18127662       0.18945317
H       -0.34128645      -0.58167946      -0.75420308
H       -0.24068472      -0.81115508      -0.47317728
H        0.26710641      -0.13693929      -0.22659761
H       -0.28216222       0.12548208      -0.85045201
H       -0.00844793       0.16381121      -0.07363492
H        0.00777164       0.15087152      -0.04310900
H       -0.18012820      -0.04765511      -0.31409672
H       -0.21092823       0.29883444      -0.14442503
H       -0.41309106       0.25345802      -0.07485282
H        0.04205815       0.38601783       0.29977110
