21
Properties=species:S:1:pos:R:3 pbc="F F F"
H        0.00000000       0.00000000       0.00000000
H        0.80713278      -0.08439321       0.53802919
H        1.15696812      -0.41674539      -0.36777502
H       -0.85755616       0.19475858       0.52914113
H       -0.69888234      -0.41514146       1.27137113
H        0.09975237      -0.24406216       1.26428163
H       -0.50612307      -0.79984093       0.74266326
H       -0.10011631      -0.12054993       0.00480688
H        0.76338458      -0.32186300      -0.66118491
H        1.44385266       0.63548976      -0.27360651
H        0.49663925       0.41765127      -0.21534815
H       -0.00292194       0.08055314       1.11619031
H        1.37817335       1.61944366      -1.02013123
H        1.06228971       0.78188169      -0.51810402
H        0.36624077      -0.76854044      -0.93610591
H        1.02000642       0.60172331      -1.01069987
H       -0.07037413      -0.57419908      -1.08307147
H        1.00012958       0.86778545      -1.39487195
H        1.05516958       0.60172331      -0.86507928
H       -0.45110849      -0.16553859       1.69764364
H       -1.21222079      -0.38027242       0.88828081
