21
Properties=species:S:1:pos:R:3 pbc="F F F"
H        0.00000000       0.00000000       0.00000000
H       -0.53245163       0.67024595      -0.56620628
H       -0.27058688       0.02737838      -1.32216406
H       -0.61070484      -0.29518521      -0.46680814
H        0.41213375       0.88808441      -0.47474173
H        1.06352091       0.20259023      -0.24267866
H        1.34710443      -0.76548523      -0.05364381
H        1.69952679      -0.71206933       0.90878493
H        0.51493180      -0.73181123      -0.38387311
H        0.35441077      -0.31208420      -0.33903021
H        0.44597167      -0.71754789       0.13074628
H        0.39080983      -0.67979896      -0.58155942
H        0.51204479      -0.71905762      -0.34547275
H       -0.27374470      -0.31335509      -0.44366759
H       -0.35311842      -0.07206932      -0.35479596
H       -0.38357377       0.17747009      -0.25537756
H       -0.37312269       0.02717279      -0.25528586
H        0.80547369      -0.09807098      -0.36235595
H        0.76735377      -0.14803906      -0.32879454
H        0.75606203      -0.24728116      -0.33960140
H        0.77313840      -0.34519991      -0.39119774
