21
Properties=species:S:1:pos:R:3 pbc="F F F"
H        0.00000000       0.00000000       0.00000000
H       -0.32486421      -0.96807545       0.10303906
H       -0.37802687      -0.91159266      -0.28181261
H       -0.88507062       0.39891118      -0.33293220
H       -1.16317701       1.31734180      -0.49786532
H       -1.00416327      -0.53018653      -0.06712157
H       -0.98351294       2.16614103      -0.05591300
H       -0.92065012       0.55858010       0.68026257
H       -1.18292546       0.52273166       0.06450963
H       -0.42226249       0.70262724      -0.14220318
H       -0.57998425      -0.04286671       0.79700738
H       -1.30463898       0.72643721      -0.31397265
H       -0.31583875       0.20236444       0.32493165
H       -1.03848326       1.70716739       0.13466887
H       -0.54490089       1.92891014       0.58972883
H       -0.13051778       1.17524946       1.04617500
H        0.01150732       1.04654062       0.58437109
H       -1.05688560       0.01800531       0.17070997
H       -0.14802337       2.60474539       1.33125591
H       -0.23524068       1.79381943       0.62491345
H       -0.16406858       2.49311614       0.41713381
