21
Properties=species:S:1:pos:R:3 pbc="F F F"
H        0.00000000       0.00000000       0.00000000
H        1.00909960       0.15966894       0.09771150
H        0.11038321      -0.33537912       0.12137675
H       -0.06635320       0.10351375       0.16385721
H        2.22419930       0.26687112       0.30220678
H        1.99377227       0.39125803      -0.69014156
H        2.63750219       1.06148124      -0.07967839
H        2.24373960       1.38064086      -0.58077097
H        2.93523979      -0.26082608       0.70719838
H        3.06964993       0.13407433      -0.16022998
H        3.03180742      -0.31894973       0.06156838
H        3.01578450       1.25625396      -1.24545014
H        3.62272930       0.43978155      -1.38078284
H        3.14572859      -0.53753984       1.89417028
H        2.93523979      -0.53753984       1.91268897
H        1.18617821       0.70082521      -0.61194187
H        1.95030093       0.56416845      -0.03250962
H        2.20658445       0.72855675      -1.36707163
H        2.59217453       1.05019057      -0.45397663
H        2.48412085       0.33460611      -1.42440939
H        1.21213150      -0.47938001      -0.24286133
