21
Properties=species:S:1:pos:R:3 pbc="F F F"
H        0.00000000       0.00000000       0.00000000
H        0.47219095      -0.55577880       0.64514065
H        0.25396872      -0.17732459       1.51532018
H        0.79575974      -0.55577880       0.07705372
H        1.41168714       0.15330112      -0.17965633
H        1.07604933      -0.12984550      -1.04869962
H        0.77575314       0.23203737       2.22821903
H        1.67754340      -0.14641684       0.13128796
H        0.36895785       0.78810656       1.46258450
H        0.35434270      -0.05144508      -0.11462438
H        0.94324052      -0.34768400      -0.10903525
H        1.06907618       0.94872093      -1.02089369
H        0.31829870       1.16655946      -0.44042802
H        0.19270459      -0.16864672       1.01916361
H        0.11391640       0.67098075      -0.60297346
H        0.98589212       0.89311999       1.54493856
H        0.97709429       0.93958735       0.71741039
H        1.17697096       0.94417298      -1.02804899
H        1.70663428      -0.19945222       2.25273132
H        1.29091108      -0.08619916       1.50999022
H        1.17461622       0.04490727       0.25496408
