21
Properties=species:S:1:pos:R:3 pbc="F F F"
H        0.00000000       0.00000000       0.00000000
H       -0.39122835      -0.01598554      -0.83368021
H        0.92314816       0.43148959       0.12222161
H        0.72717041       1.42974389      -0.01344308
H       -0.04949366       1.02440715       0.03826617
H        0.11385494       1.34535062      -0.76496345
H        0.17719787       0.14771777      -0.44479758
H        1.24875987       0.69793266       0.36133382
H        0.49560937       0.15187156      -0.24252027
H        0.07930607       0.72094113      -0.61205930
H        0.45331898       1.14659727      -0.90388912
H        1.26375246       0.44330168      -0.15302235
H       -0.18155938       0.37570620       0.38416216
H       -0.64303118       1.05716562       0.26692802
H       -0.86127490       0.73063552      -0.04250336
H        0.44433069       1.67092121       0.32097462
H        0.29449567       1.24381614       0.10853480
H        0.40702116       0.67920673      -0.31339023
H        0.14805263       0.25489056      -0.23064025
H       -1.46613121       1.09475589       0.03757746
H       -1.46856892       1.09475589       0.01630118
