21
Properties=species:S:1:pos:R:3 pbc="F F F"
H        0.00000000       0.00000000       0.00000000
H        0.85755634      -0.19475858       0.52914101
H       -0.50056219      -0.81366080      -0.18829377
H        1.11024451       0.13759361      -0.40841681
H        0.82927823      -0.02207533       0.56569177
H       -0.28918082      -1.21142948       0.02872704
H       -0.59712183      -0.44855419      -0.97029662
H        0.24313509      -2.02509022       0.08027139
H       -0.28462690      -1.56154215      -0.66800272
H       -0.10882732      -2.23178816      -1.42509508
H        0.56026423      -1.57070553      -1.67678368
H        0.83393204      -2.51280928      -1.37533653
H        0.86994451      -2.53062177      -0.34980750
H        0.18245667      -0.49923083      -1.55145943
H        1.11530232      -1.98511207      -0.60694379
H        0.22853416      -1.91953933      -1.34390330
H       -1.21771026      -0.94772720      -1.43293476
H       -0.38886976       0.33833113      -1.39208627
H        0.60579240      -0.87768507      -0.76049787
H       -0.65808392       0.99941373      -0.72985184
H       -0.20338887      -0.37870535      -0.97098738
