21
Properties=species:S:1:pos:R:3 pbc="F F F"
H        0.00000000       0.00000000       0.00000000
H        0.97460508       0.08895500       0.30912116
H       -0.84067774       0.08895500      -0.58195531
H        0.45423549       0.46966103       0.72190684
H       -1.09444261      -0.37459308       0.29784602
H       -0.71318114      -0.33235219      -0.65896791
H        1.32001281       0.42089361       0.41867614
H        0.70408547       1.12997353       0.16196600
H       -0.31455171       0.69320798       1.05828166
H        0.29005373       1.98761594      -0.22059271
H        0.00604939       1.99236798      -0.25200972
H        0.33039084       1.82083488      -0.20846358
H       -0.60061169       0.75380671       0.65269876
H       -0.51127249       0.73273170       0.22370195
H       -1.05856025      -0.46354806       1.31966949
H       -0.42051739      -0.90332448       0.73012823
H       -0.30545169      -0.18217154       1.23071551
H       -0.93533278       0.26826316       0.68932962
H       -0.04598683      -0.10892546       0.19910949
H       -1.36400998      -0.80302292       1.52328014
H       -1.28019094      -0.24914289       2.11632633
