21
Properties=species:S:1:pos:R:3 pbc="F F F"
H        0.00000000       0.00000000       0.00000000
H        0.54069358       0.79439902       0.36042264
H        0.21587279       1.35062027       1.15944278
H       -0.71210563       1.36751926       1.45377505
H        0.01773715       0.49594721       1.19154656
H       -0.04364014       0.95406795      -0.46806023
H       -0.71893007      -0.13992718       1.15920293
H        0.17613328       1.14968073       1.11965096
H        0.61331552      -0.08439321      -0.75152034
H       -1.16154170       0.81755066       1.43404245
H       -1.78541505       0.24061823       1.78938568
H       -1.65267897      -0.66792768       1.71683753
H       -1.14695024       0.20876169       1.54660809
H       -1.70219529      -0.91857123       0.77727014
H        1.12452149       0.26269728       0.00098056
H        0.76911050       0.45508823      -0.27180415
H        0.45657036       0.29950383      -0.08510392
H       -0.46908575      -0.68098962      -0.79904348
H       -1.03626919       0.76058042       1.27660036
H       -1.03282416       1.73164141       1.33313215
H       -1.13829327      -0.17116272       0.35689053
