21
Properties=species:S:1:pos:R:3 pbc="F F F"
H        0.00000000       0.00000000       0.00000000
H       -0.47398776      -0.23709527       0.75329894
H       -0.20031992       0.70500839       1.05474615
H       -0.29432368       0.61170387       1.19525123
H       -0.78457874      -0.26419187       0.60659927
H       -0.66490048       0.09351680       0.84456462
H       -0.16146089      -0.47206360       0.23767215
H       -0.52323854      -0.61586303       0.71488565
H       -0.54093575      -0.48731983       0.79626322
H       -0.76179689      -0.34939590       0.67949641
H       -0.27214918      -0.15114567       0.86185747
H       -0.55524278      -0.27774018       0.88243592
H       -0.73374021      -0.24138860       0.75331539
H       -0.40495694      -0.27616930       0.51438123
H       -0.64002556      -0.61586303       0.61254168
H       -0.41836017      -0.34272560       0.46082696
H       -0.70086449      -0.61586303       0.54187536
H       -0.44231278      -0.32091793       0.45411307
H        0.66751897       0.41888687      -0.36483872
H        0.66751897       0.41888687      -0.36483872
H        0.66751897       0.41888687      -0.36483872
