21
Properties=species:S:1:pos:R:3 pbc="F F F"
H        0.00000000       0.00000000       0.00000000
H        0.05739931      -0.52769721       0.81627315
H        0.32188579       0.81647241      -0.53205854
H        0.04100065       1.01237965       0.16349353
H       -0.34179497       1.45215607       0.94331729
H       -0.28415203       0.61346847       1.05145168
H        0.65268403      -0.33235219       0.71893638
H        0.55401278       0.16911954       0.24957621
H       -0.09965181       0.56424838       0.90692353
H       -0.45843688       0.38235402       1.02107000
H       -0.08236903       0.31355295       1.28724480
H        0.00529093       0.08653468       1.11839986
H        0.61725616       0.86690521       0.98099202
H        0.66636568       0.90660816       0.91043597
H       -0.18005061       0.91084611       1.25250578
H        0.26610637       0.73621035       0.77823377
H       -0.14789259       0.99527723       1.20856917
H        0.18844548       0.92626566       0.85319781
H        0.11477492       0.90183961       0.86148053
H        0.51470977       1.66137052       0.02234513
H        0.51470977       1.66137052       0.02234513
