21
Properties=species:S:1:pos:R:3 pbc="F F F"
H        0.00000000       0.00000000       0.00000000
H        0.36038706      -0.22961354      -0.93312520
H       -0.56818217      -0.64286757      -0.56321782
H        0.18869120      -0.72726077      -1.16991496
H       -0.09409392       0.06734937      -0.68340886
H        0.03859690      -0.38778591      -0.83490968
H       -0.42471412      -0.06437302       1.15985012
H       -0.42471412      -0.06437302       1.15985012
H       -0.76035166      -0.95816380       1.35102117
H       -0.68531466      -0.87803382       0.69283366
H        0.02473137       0.84721965       1.30240333
H       -1.04570186      -1.10764742      -0.24029148
H        0.35456032       0.65246105       0.35024476
H       -0.21973135       0.52144784       1.97723603
H        0.41376880       0.52375221      -0.12926370
H       -0.54513955      -0.35839981       1.71639419
H        0.59227198       1.32321227       0.93498725
H        0.30989808       0.88655448       2.56062698
H        0.72142339      -0.50578845      -0.03168310
H       -0.39607191      -0.85409439       2.41368961
H        0.15760642       0.38265115       0.63409197
