21
Properties=species:S:1:pos:R:3 pbc="F F F"
H        0.00000000       0.00000000       0.00000000
H       -0.37664786      -0.36585209      -0.88182342
H       -0.23501275       0.55577880      -0.76415956
H       -0.96356869       0.17732459      -0.24067158
H        0.51472533       0.11800810       0.81804204
H        0.95546603       0.84055597       0.23752850
H       -1.09248900       0.49263310       0.67148030
H        0.09141940       0.55778456       0.05944484
H        0.42855108       0.28477716      -0.36374629
H        1.38265371      -0.49785492       0.99563777
H        1.01739597      -0.65752387       0.04990184
H        0.44090989       0.30998304      -0.68440658
H       -0.70511770       0.03752333       0.12309778
H        0.40246597       0.05740935       0.33459026
H        0.67100239      -0.70546120       0.90198839
H        0.71157676      -1.21615887       1.11017525
H       -0.60801399      -0.26696855       0.07783353
H        0.80303568      -0.38968250       0.90468162
H        1.03902078      -0.55032170      -1.18209589
H        1.03902078      -0.55032170      -1.18209589
H        0.43108290      -1.30398238      -1.07978284
