21
Properties=species:S:1:pos:R:3 pbc="F F F"
H        0.00000000       0.00000000       0.00000000
H       -0.96783787       0.05067664       0.09371616
H       -0.18921454      -0.95433736       0.03871714
H       -0.82783991      -1.54015827      -0.51109678
H       -0.87765694      -0.29845181      -0.44041863
H       -0.67358530      -0.05965728       0.17383379
H       -1.41211557      -0.78649759      -0.70776534
H       -1.68797946      -0.69161522      -0.30169088
H        0.03880034      -1.72383332      -0.10756224
H       -0.78209615      -1.04799819      -0.29060072
H       -0.09715511      -1.24672914      -0.16991337
H       -2.35670328      -0.88403678      -1.32421732
H       -1.41926551      -1.28294802      -1.20010376
H       -1.71024871      -0.33111334      -0.66051596
H       -2.46965933      -1.72384667      -1.68182945
H       -2.25004315      -2.43676901      -1.14159954
H       -2.63116550      -2.05831480      -1.95374441
H       -2.28322911      -2.83568025      -0.19656378
H       -1.58671069      -0.71617967      -0.58728957
H       -1.34415996      -0.83247614      -0.39524692
H       -1.11219275      -0.95067751      -0.28407866
