21
Properties=species:S:1:pos:R:3 pbc="F F F"
H        0.00000000       0.00000000       0.00000000
H        0.12256700       0.83228827       0.37498182
H       -0.24870789       0.08895500       0.99174356
H        0.30055681      -0.08895500      -0.97728014
H        0.56932372      -0.52575958       1.07095385
H        0.85501999       0.71428019      -0.25561130
H        1.46804011      -0.03071150       1.09461915
H        2.42222905      -0.21548247       1.15330672
H        0.95057344       0.19419162      -0.30992174
H        0.00653419       0.88335401       0.39416051
H        0.23559213       0.40425569      -0.92705250
H        1.34959793       0.08729660       0.13539737
H        2.43625998      -0.77126127       0.35394830
H        0.23859707      -0.67724037       1.97413397
H       -0.09482300       0.06217647       0.22423646
H       -0.73283172      -0.72791702       1.93148315
H        1.87563562      -0.94729370       1.49057341
H        0.38433671      -1.23016381       1.05916786
H        1.37352753      -1.03168690       0.66061783
H       -0.32967019      -0.51007855       1.07237434
H        1.53664088      -1.06971312       0.74756724
