21
Properties=species:S:1:pos:R:3 pbc="F F F"
H        0.00000000       0.00000000       0.00000000
H       -0.51304650      -0.77136850      -0.44169885
H       -0.32940632      -1.71843040      -0.30974814
H        0.43239075      -2.06782627       0.36974809
H        0.93773615      -0.01689900       0.26158407
H        0.61332822      -1.90320134      -0.15109059
H        0.75658137       0.15966894       0.67484397
H        0.79637194      -1.94981813       1.26509857
H        1.65392828      -1.75505960       1.79423952
H        0.45163715      -0.88937658      -0.38236582
H        2.18854856      -0.94139880       1.80831730
H        3.09014964      -0.65825218       1.57378697
H        3.41507339      -0.02237779       2.23571539
H        2.15870810      -0.91749763       2.10570550
H        0.79531682      -0.81863868       1.29514539
H        3.64132738       0.20723575       1.26133835
H        1.29827166       0.01309234       1.23751795
H        3.26212978       0.53556454       2.03383255
H        0.64240861      -0.64040303       0.85372591
H        0.84784794      -0.82034349       1.31101334
H        1.92884290      -0.00746050       2.23967147
