21
Properties=species:S:1:pos:R:3 pbc="F F F"
H        0.00000000       0.00000000       0.00000000
H       -0.92830116      -0.43148959      -0.07346868
H       -0.39454409      -0.49897972       0.73716694
H       -1.59319615      -0.67287821      -0.88819158
H        0.80348700       0.46354809      -0.43915334
H       -0.74505830      -0.47811961      -1.43230104
H        0.14789033      -0.09966540      -1.34583652
H       -0.14970775      -0.90834165       1.58601260
H       -0.39116478      -1.34296393      -1.15868735
H       -0.39214081      -0.62519503       0.68650442
H       -0.36973321      -0.93436480       2.03424430
H        0.33036518      -0.84944719       0.56301093
H        0.86978322      -0.89052922       1.46920168
H        0.95846969       0.03123415       1.21299744
H        0.98870713      -0.00991261       1.20281947
H        0.97087783       0.03123415       1.25211811
H        1.32596385       0.11456019       1.21987188
H        1.34784567      -0.95112795       1.60255849
H        1.34958351      -0.93386626       1.60304332
H        0.13057947       0.17893320       0.90892076
H        0.15070736       0.34926924       0.91415650
