14
Properties=species:S:1:pos:R:3 pbc="F F F"
H        0.00000000       0.00000000       0.00000000
H        0.68725604      -0.43977645       0.53135377
H        0.63639784       0.48932126       0.81814951
H        0.94177669       1.26392341       0.31337601
H       -0.22911847       0.89868319       0.99525177
H       -0.02685745       1.56892920       0.24479544
H       -1.14434791       0.58337468       0.89038670
H        0.28723100       0.92909771       0.04833955
H       -1.39255404       0.66116214       1.31740284
H        0.22730663      -0.11071417      -0.44876629
H        0.62971008      -0.14848796      -0.56057590
H        1.47928655      -0.82701075       0.26475444
H        1.17509222      -0.78275537      -0.02532721
H       -1.26449013       0.66116214       1.36946392
