21
Properties=species:S:1:pos:R:3 pbc="F F F"
H        0.00000000       0.00000000       0.00000000
H        0.63772744       0.77136850       0.22719663
H       -0.86341518       0.52595156       0.17667229
H        0.10126847       0.40794346       0.23600532
H        0.92970502       1.72703385      -0.00684772
H       -0.01295203       2.09288597      -0.18255720
H       -0.16162236       1.57245088      -1.11592293
H       -0.93136746       1.96849906       0.25831109
H       -0.43529731       1.07347119      -1.90597486
H       -1.84105158       1.62140858       0.25032821
H       -1.37676442       0.76306576      -0.20990252
H       -0.74653703       0.47177726      -1.10345459
H        0.73897302       2.14640212      -0.98249054
H       -1.02926850       2.39560413       0.49913591
H       -0.28769726       0.52245390      -0.24615711
H        0.57399362       1.36475968      -2.32663345
H        0.57805592       1.40253353      -2.28716254
H       -1.59705532       0.75438792       0.23886985
H        0.54200017       1.36475968      -2.39639449
H       -0.73258513       1.68127298      -1.89831352
H       -0.87098044       1.97777832       0.27471113
