21
Properties=species:S:1:pos:R:3 pbc="F F F"
H        0.00000000       0.00000000       0.00000000
H       -0.93989587      -0.24138860      -0.47165081
H       -0.22651178       0.43148959       0.90323478
H        0.93116802      -0.43148959      -0.00817158
H        1.19999611      -0.34709638       0.92385322
H       -0.17365673      -0.26532716       1.65488410
H        0.62023717       0.20912492       1.56246209
H       -0.66000521      -1.07895052       0.05129758
H       -1.31185579      -0.58847910       0.35855088
H       -0.01030177      -1.72181809       0.51812804
H        0.79172099      -1.33814645      -0.33465073
H        1.08752191      -1.34535074       1.13400018
H        0.33339006      -1.22734261       0.52950031
H        0.79204285      -2.27275753       1.45947266
H        0.22310513      -2.02211404       0.71010715
H        0.84946007      -2.45436001      -0.15800363
H       -1.74499273      -0.38373291       1.32529736
H        0.92861319      -1.78413820       2.09830928
H       -0.61362779      -0.36409354       1.31536889
H        1.03362179      -3.38345766      -0.38366446
H        0.83760798      -2.43878603      -0.07588831
