21
Properties=species:S:1:pos:R:3 pbc="F F F"
H        0.00000000       0.00000000       0.00000000
H        0.65604281      -0.46966103       0.54505712
H        0.09992468      -0.96470910       1.25144506
H        1.42091179      -0.52307695       1.22729337
H       -0.90177631      -0.08439321       0.35740483
H       -1.32951629      -0.76988739       0.90072531
H       -1.13728034      -1.72422481       0.91933960
H       -0.21314317      -0.76995051       2.20924544
H       -0.83398020       0.03361489       1.32153070
H       -0.00327756       0.21943229       2.38360715
H       -0.28343850       0.27071017       2.02083564
H        1.74231279      -1.41686773       1.44153702
H        1.03209543      -2.07795048       1.36016178
H       -0.25785178      -1.63526976       0.39778769
H       -0.37537307      -1.26067674       1.42722178
H        1.07390702      -1.22915137       0.88492203
H        0.40504402      -1.74559832       2.10156083
H        0.19012715      -0.92153245       2.84667635
H       -0.18327479      -1.24806261       2.90951800
H        1.16124165      -0.37571019       3.04538608
H        1.39052749      -1.31435549       3.16552734
