21
Properties=species:S:1:pos:R:3 pbc="F F F"
H        0.00000000       0.00000000       0.00000000
H        0.21426670       0.05341591       1.00227761
H       -0.13222156       0.24817449       1.94850111
H       -0.37409788       0.97998571       2.54348779
H        0.22920114      -0.58319080      -0.74526250
H       -1.24992418       0.79521477       2.92669654
H       -0.61923707      -0.44556379       0.93631148
H       -2.09280920       0.71082157       3.40678358
H       -2.39057779       0.36373109       2.54717731
H       -1.29260862      -1.08843136       0.50432074
H       -2.38928223      -0.06378055       3.91683865
H       -0.75416237      -0.81280434      -0.92855954
H       -2.21346951      -0.65694177       0.36591676
H       -2.32509899      -1.04309964       4.21706915
H       -1.17379093      -0.01840532      -0.43240845
H       -1.88968396      -1.09651554       3.28923059
H       -2.04942608       0.19185734       0.81390202
H       -1.25060678      -1.22216630      -0.19778824
H       -2.33506393      -0.34285486       3.71548533
H       -0.68562949      -0.45818177       0.28617066
H       -0.81603128      -0.43731970       1.84572554
