21
Properties=species:S:1:pos:R:3 pbc="F F F"
H        0.00000000       0.00000000       0.00000000
H       -0.92501378       0.29845181       0.32954502
H       -0.40316308      -0.89468008      -0.30055124
H       -0.88670588      -0.48531812      -1.03992260
H       -1.75267243       0.00972995      -0.79835868
H       -0.62904108       0.99526858      -0.36339837
H       -1.40538931      -0.42409608      -0.21862257
H       -0.60476959       1.96069980      -0.48755330
H       -1.86994803       1.02745032      -1.13691282
H       -0.17197779       1.83631289      -1.40980220
H       -0.32543537       0.40944773      -1.14950347
H        0.74513620       0.69681674      -0.11199278
H        0.09695989       1.28263760       0.42652863
H       -0.36320102       2.11436868       0.21549220
H        0.65628356       0.85648566      -1.12191117
H       -1.35511565       2.06095266      -0.04253109
H       -2.19956923       1.44508958       0.22530906
H       -1.06582761      -0.91249251       0.48295528
H       -0.29541275       2.28812647      -1.58481133
H       -0.83673513      -0.27661812       1.18384135
H       -3.12004709       1.99801302       0.11984262
