21
Properties=species:S:1:pos:R:3 pbc="F F F"
H        0.00000000       0.00000000       0.00000000
H        0.80713278      -0.08439321       0.53802919
H        1.73355556      -0.48330438       0.72759408
H       -0.48468333       0.55622131       0.71345901
H       -0.38906249       0.20913082       1.61813891
H        0.60667020       0.28145888       1.47573423
H        1.49212945       0.16345078       1.86315775
H       -0.25218260      -0.58547932       2.16395903
H        0.10796480      -0.79461014      -0.55226731
H        0.55470252      -0.95427907       0.35781789
H        0.19996557      -1.43427849       2.01176500
H       -0.10270697      -0.37118560       0.93102360
H        0.03684995      -0.63494122       0.45905471
H        1.71042073       0.44410253       0.28861225
H        2.40614796       0.75305259       0.39007917
H       -1.14376557       1.07636452       0.49161035
H       -0.42733508       0.20048857       0.48532322
H        0.07528466      -0.36312056       0.37836295
H       -0.14084236      -0.98889852      -1.36128032
H       -0.16096933      -1.07583117      -1.32863331
H        0.03683842      -1.65700459      -1.36070490
