21
Properties=species:S:1:pos:R:3 pbc="F F F"
H        0.00000000       0.00000000       0.00000000
H        0.49089283       0.77460212       0.32722577
H       -0.04372752       1.58826292       0.34130356
H        0.60188144       2.31081080       0.67958963
H       -1.01871085       0.12438690      -0.00893964
H       -0.46868071       0.15148079      -0.83991235
H       -0.04213244       1.52201056      -0.13167349
H       -1.82367432       0.51162118       0.21560730
H       -2.13836288       1.59138346       0.34032917
H       -0.54481578       0.59125721      -1.70527995
H       -1.21939588       1.22042394      -0.42697901
H       -2.13836288       1.87453008       1.27193475
H       -2.83626652       1.71577036      -0.40181786
H       -1.35265613       1.45722699      -0.18990783
H       -2.75715232       2.68500662      -0.35300177
H       -1.13541555       1.22042394      -0.33608949
H       -2.81112742       0.67564988      -0.68755347
H       -0.78733444       1.42881918      -1.16398668
H       -0.41580695       0.57117677      -1.58794522
H       -0.35200977       2.26252842      -1.88355303
H       -0.35200977       2.26252842      -1.88355303
