21
Properties=species:S:1:pos:R:3 pbc="F F F"
H        0.00000000       0.00000000       0.00000000
H        0.15607943       0.96046287      -0.03480161
H       -0.49411148      -0.83173102      -0.11017396
H       -1.35672522      -0.61389256      -0.50578105
H       -0.62164694       0.02198184      -0.56395751
H       -2.27590227      -0.62987810      -0.44924709
H        0.54942942       1.21669567       0.13730460
H        0.00602877       0.37913370       0.37506390
H       -2.46582365      -0.94307005      -0.78960091
H       -2.69429684      -1.61331606      -1.53249669
H       -3.09071946      -2.05309248      -2.30548239
H       -1.92967200      -1.49530792      -0.94132507
H       -2.35099125      -1.50727022      -1.64567089
H       -4.37203121      -2.42567086      -1.74485779
H       -4.37203121      -2.42567086      -1.74485779
H       -4.37203121      -2.42567086      -1.74485779
H       -4.38310623      -2.37690639      -1.74001217
H       -4.38310623      -2.37690639      -1.74001217
H       -4.37203121      -2.42567086      -1.74485779
H       -4.37203121      -2.42567086      -1.74485779
H       -4.37203121      -2.42567086      -1.74485779
