21
Properties=species:S:1:pos:R:3 pbc="F F F"
H        0.00000000       0.00000000       0.00000000
H       -0.32983679       0.96807545      -0.08579928
H        0.08195565      -0.58319080       0.77539194
H        0.77461576      -1.05285180       1.27308798
H        0.52416432       0.52829897      -0.24498361
H        1.46359253       0.89415109      -0.05275756
H        1.80618787       0.54706061       0.78998643
H       -0.06455288       0.35737032       1.28333616
H        0.98098123      -0.07353264       1.50040102
H        0.32724375       0.63554728       1.63416898
H        0.52062905       1.50433302       1.39720619
H        1.78283358       0.36624381       1.16620004
H        1.36136055       1.94410944       1.17850959
H       -0.72182077       1.68099761       0.34597412
H        0.13491967       1.20588124       0.49416769
H        1.65342391       1.06742001       0.73192406
H        1.20114899       0.85325134       1.43313050
H        1.34419179      -0.22878593       0.74680901
H        1.80937994      -1.26110911       0.40001899
H        1.80937994      -1.26110911       0.40001899
H        1.80937994      -1.26110911       0.40001899
