14
Properties=species:S:1:pos:R:3 pbc="F F F"
H        0.00000000       0.00000000       0.00000000
H       -0.49101692      -0.19475858      -0.87994057
H        0.27408409       0.30028951      -0.40784761
H       -0.03658907      -0.27774018       1.04194474
H        0.06389549      -0.46251115       1.99264109
H       -1.18554640      -0.59366977      -1.52167463
H       -0.16219021      -0.33115608       0.02474511
H       -0.64146775      -0.26460749      -0.58563662
H       -0.55356777      -0.22781768      -2.24283981
H       -0.62588507      -0.26131758      -2.31517649
H       -1.94948673      -1.00967455      -1.21889889
H       -1.91343009      -1.00967455      -1.14027822
H       -2.00918555      -1.08871782      -1.16129994
H       -0.15161082      -0.32536662       0.89027131
