21
Properties=species:S:1:pos:R:3 pbc="F F F"
H        0.00000000       0.00000000       0.00000000
H        0.88292891      -0.28314662      -0.29719594
H        0.91506368      -0.74669468       0.61790752
H        0.79586375      -0.43977645       0.34822190
H       -0.98642880      -0.22961354       0.16601126
H       -1.22964633       0.17842951       0.00997894
H       -1.32011127       1.09002221      -0.45277238
H       -1.12394178       2.02866745      -0.62166125
H       -0.55747038       2.41328120       0.21219105
H        0.29919291       2.85305762       0.35636324
H        0.84374809       3.62765980       0.12940018
H       -0.18928373       1.51949048       0.32897094
H       -0.29542160       1.83390892      -1.19520044
H        0.13254687       0.60105985       0.36013392
H        0.00234711       2.18099928      -2.05480671
H        0.13604733       1.23240614      -0.64714319
H        0.55824363       1.32335687      -1.96125209
H        1.78365898       3.36346793      -0.18697606
H        0.19143310       1.70181108      -1.14254367
H       -0.36509508       0.89526361      -0.77423310
H       -0.51198936       0.95691729      -1.93307042
