21
Properties=species:S:1:pos:R:3 pbc="F F F"
H        0.00000000       0.00000000       0.00000000
H       -0.30729049       0.46966103      -0.79564559
H       -0.79177290       0.12257054      -0.02566773
H       -1.76079631       0.02905375       0.43949401
H       -2.72980165       0.01215475       0.53332323
H       -0.16325489       0.93320912      -1.69991374
H       -0.63008982       1.40287018      -2.41373754
H       -1.08647609       0.57113916      -2.19465780
H        0.75695783      -0.34709048       0.50458288
H        0.33979443      -0.04863867      -0.38436317
H       -0.64988518       0.08794822       0.23242210
H       -1.60643649       1.18103921      -2.74758101
H       -0.28373545       0.01934913       0.75588036
H       -0.27427524       0.01934913       0.79224837
H       -0.75313890       0.27531967      -0.91162258
H       -2.16386652       0.04686620      -0.50419074
H       -2.16386652       0.04686620      -0.50419074
H        1.01573217      -0.35576835       0.07684401
H       -2.16386652       0.04686620      -0.50419074
H       -1.52056873      -0.05838426       0.06960827
H       -2.11794519       0.32303551       0.14885551
