21
Properties=species:S:1:pos:R:3 pbc="F F F"
H        0.00000000       0.00000000       0.00000000
H        0.59380746      -0.49897972      -0.58861941
H        0.20089495      -0.26936617      -1.50852227
H        0.74824280       0.12438690      -0.69136417
H       -0.56862617      -0.15773690      -2.00219631
H       -1.43806446       0.20870271      -1.37748027
H       -1.30105817       0.00193204      -1.30121624
H       -1.00186288       0.71813905      -2.57282591
H       -0.20620668       1.18168712      -2.11963916
H       -1.92517805       0.48852551      -2.95765114
H       -0.79340303       1.73746586      -2.66219902
H       -2.32956648       1.36521482      -3.30580282
H       -0.99821717       2.69313121      -2.97537446
H       -1.00186288       0.71813905      -2.57282591
H       -2.94366550       0.86623514      -3.87322044
H       -0.52881229       2.80499411      -2.84443259
H       -1.99563074       1.09584868      -4.19233131
H       -2.30277562       0.24088675      -4.08894539
H       -1.04082274       0.71813905      -2.54103088
H       -1.57984257       1.82642090      -2.00880504
H       -1.57984257       1.82642090      -2.00880504
