21
Properties=species:S:1:pos:R:3 pbc="F F F"
H        0.00000000       0.00000000       0.00000000
H       -0.41358426      -0.01689900      -0.88131911
H        0.49592441       0.43148959       0.78816211
H        0.32664543       1.42974389       0.62036216
H       -0.05205595       1.02440715       0.03470014
H        0.49446741       2.38408136       0.71594954
H        0.60092503       2.82385778      -0.14621305
H       -0.42546952       1.55210435      -0.69341993
H       -0.79168355       0.91050792      -1.10555387
H        0.03888696       0.81483203      -1.10837460
H        1.33989215       0.74679810       1.15743148
H        0.58182889       0.97641164       0.50478947
H        1.20418763       1.86878562       1.10087168
H        2.17649269       1.19283843       1.09233916
H        1.05899870       1.13394392       0.92438155
H        0.77188087       0.82406586       0.07474152
H        1.43716931       1.03122365       0.55540556
H        1.39140177       1.93182755       1.43584752
H        1.18091106       1.70392990       1.25989079
H        1.19099760       1.35250735       1.33030784
H        1.34108591       1.77865934       1.20294404
