21
Properties=species:S:1:pos:R:3 pbc="F F F"
H        0.00000000       0.00000000       0.00000000
H        0.36038706      -0.22961354      -0.93312520
H       -0.83842331      -0.55622131       0.20245510
H       -0.91916019      -0.87152982      -0.71521759
H       -1.10961688       0.08280754      -0.68316466
H       -1.12760425       0.02939163      -1.70793152
H        0.71140987       0.65023410      -1.15831840
H       -0.19267917       0.81366080      -0.49889058
H       -1.21805060      -0.99223566      -1.74562836
H        0.15381259       0.52584720      -2.01092434
H        0.31616926       1.39764261      -0.57652003
H       -1.73852265      -0.15467370      -2.03009725
H       -0.80415773       0.15999511      -2.05298424
H       -0.17242566      -0.81543440      -1.58600223
H       -1.09312296       0.83147323      -0.99103659
H       -0.31773382       0.17394841      -1.35506690
H       -1.46218038      -0.99697918       0.62054694
H       -0.71988797      -0.13076572       0.79296207
H        0.50684053       0.36393201      -1.69603586
H        0.22067374      -1.27571654      -2.60382724
H        0.22067374      -1.27571654      -2.60382724
