21
Properties=species:S:1:pos:R:3 pbc="F F F"
H        0.00000000       0.00000000       0.00000000
H        0.17388797      -0.66108263       0.69339287
H        0.26566121      -0.63587439      -0.68785810
H        0.28544280      -1.62915802       0.37135354
H        0.98334396      -1.61317253      -0.22949275
H        0.44491780      -1.78882694      -0.62984443
H        0.82348990      -1.19165325      -0.11514705
H       -0.03978989      -1.36860609      -1.15491462
H       -0.98269868      -0.79739678      -1.58734620
H        0.87128019      -0.36263081       0.00209373
H       -0.01219583      -0.81429577      -1.66415489
H       -1.05226398      -1.06158864      -0.59805995
H       -1.01452076      -1.38214231      -0.68115234
H       -1.22425818      -0.38139206      -2.37279320
H       -0.83662689      -0.47947067      -1.31421232
H       -1.87508774      -1.50169849      -3.01793623
H       -1.87508774      -1.50169849      -3.01793623
H       -1.90470266      -2.29630852      -3.57987785
H       -1.92547894      -1.46921945      -3.02070999
H       -2.95261836      -2.00502014      -3.89211917
H       -2.95261836      -2.00502014      -3.89211917
