21
Properties=species:S:1:pos:R:3 pbc="F F F"
H        0.00000000       0.00000000       0.00000000
H        0.50912565      -0.18477097       0.80914259
H       -0.14556891      -0.02510203       1.58322573
H        0.55268204      -0.14311013       2.25149250
H        1.52500916      -0.09243349       2.24295974
H        0.73455864      -0.61471456      -0.36861032
H       -0.98723358       0.05341591       0.27539173
H       -1.36071360      -0.21077596       1.19410777
H        2.10331678      -0.83984202       1.84262896
H       -0.72235489      -0.69399261       0.92696190
H        2.33458138      -0.75088704       0.84667331
H        3.18972325      -0.37243283       1.11790359
H        1.29291379      -0.82763851       0.96952152
H        3.51660991       0.18334597       1.84750342
H        2.06034184       0.63011438       1.74832106
H        2.67066836       0.20024498       2.32933140
H        0.80923498      -1.49140394       0.15974849
H        2.15513444      -0.59436518       2.55489802
H        0.78414714      -2.15248656       0.87417227
H        0.73451656      -1.13352692       1.86401594
H        1.02387035      -1.04620409       0.51651078
