21
Properties=species:S:1:pos:R:3 pbc="F F F"
H        0.00000000       0.00000000       0.00000000
H       -0.90169489       0.25064358      -0.26867270
H        0.92928320       0.18477097       0.22439535
H       -1.08509409      -0.73873925      -0.06665708
H        0.74987692      -0.75733268       0.58987844
H       -0.76563609      -1.51010776       0.53021914
H       -0.51793015      -2.41676474       0.78453368
H        0.01607561      -1.86384130       0.02740699
H       -0.19492751      -1.27776790       0.61475730
H       -0.18398321      -1.10517883      -0.64475060
H       -0.71145749      -0.78426087      -0.29313985
H        1.50497282      -0.23279977       1.30001545
H        1.03568745       0.58086103       1.04352307
H        0.10380805      -1.59269881       0.32103819
H        0.03643452      -0.42741656       0.23418355
H        0.13209921      -0.63952631      -0.05418134
H       -0.06041121       0.15256499       0.48172277
H       -0.13875675      -0.04064491       0.51461983
H        0.91286856       0.68248689       0.26922208
H        1.55519748       0.97916996       0.39899588
H        1.60603797       0.95613945       0.24221589
