21
Properties=species:S:1:pos:R:3 pbc="F F F"
H        0.00000000       0.00000000       0.00000000
H        0.36329272       0.89468008       0.34769225
H        1.00169814       0.08895500       0.20496775
H        1.92217612      -0.46396846       0.09950148
H        2.24992871      -0.81105894      -0.74912530
H       -0.78873909      -0.58582085      -0.29669571
H       -1.25274730      -1.31763208       0.14738721
H       -0.41504452       0.10504043      -0.66712534
H        2.29481649      -0.34139791      -1.60086727
H       -0.45529497      -1.01918030       0.72037947
H       -0.69651377      -0.24457818       1.25877154
H        0.08896789       1.78847086       0.07576424
H       -1.61946678       0.15433300       1.05297709
H       -1.76734960       1.03102231       1.56568587
H       -1.42949712       1.40947652       2.39676285
H       -0.58182049       0.66701448       1.71612048
H       -0.01673116       1.23224950      -0.78025526
H        1.53481913      -0.84037763      -1.94941306
H        1.31921983      -1.09420562      -0.78998834
H        0.46418494      -0.70387179       0.77693224
H       -1.49900639      -0.43875587       0.02381148
