21
Properties=species:S:1:pos:R:3 pbc="F F F"
H        0.00000000       0.00000000       0.00000000
H       -0.56912082      -0.52595156       0.67290437
H       -0.01606987       0.46354809      -0.91552651
H        0.91230094       0.43148959       0.18667525
H        0.20510143       0.11773255      -0.56535703
H       -1.16184664      -1.11556578       0.90782189
H       -1.02037215      -1.75144017       0.18414402
H        0.27303839       0.02697188       0.28667805
H       -0.33655328      -2.22110128      -0.32563156
H        0.45307660      -1.78132486      -0.68776715
H       -0.89714468      -1.01962900      -0.44619584
H        1.24772263      -1.40287066      -0.27138868
H       -0.26617986      -1.40287066      -1.22396064
H       -0.27883518      -1.13024318      -0.62087423
H        1.57048762      -1.75488114      -0.41941336
H        0.71380448      -1.22892952      -0.21254903
H       -0.59467423      -1.19857562       0.08459482
H       -0.40521729      -1.10409117       0.06157365
H       -0.95871663      -0.18158409       1.73685002
H       -0.95871663      -0.18158409       1.73685002
H       -0.95871663      -0.18158409       1.73685002
