6
Properties=species:S:1:pos:R:3 pbc="F F F"
H        0.00000000       0.00000000       0.00000000
H        0.88791460       0.34709048      -0.19798161
H       -0.03854322       0.19560969       0.06045653
H        1.74926305       0.58418572      -0.42204118
H        1.74926305       0.58418572      -0.42204118
H        0.60939097       0.22451299      -0.10407048
