21
Properties=species:S:1:pos:R:3 pbc="F F F"
H        0.00000000       0.00000000       0.00000000
H       -0.02074104      -0.97334045      -0.01546210
H       -0.11993916      -1.97926354      -0.19323285
H       -0.71803838       0.52769721      -0.39245063
H       -1.47574687      -0.02808160      -0.64749712
H       -0.60100967      -0.52769721      -0.55532330
H       -1.88105690       0.01985576       0.17819273
H       -1.14227343       0.36694625       0.70902979
H       -0.55972672      -0.94053376      -0.10324337
H       -1.52996802       0.07875023       1.25231516
H        1.19754195      -2.35184193       0.27613270
H       -0.19961643       0.73279834       0.53332019
H        1.23957896      -2.35184193       0.13505195
H        1.22472501      -2.30307746       0.23326211
H       -1.93933833      -0.69261825       0.71312082
H        1.22472501      -2.30307746       0.23326211
H       -0.94198114      -0.61350358       1.09936416
H        1.20892906      -2.30307746       0.28018945
H        1.22722054      -2.35184193       0.18256108
H        1.22722054      -2.35184193       0.18256108
H        1.21320248      -2.35184193       0.22960745
