21
Properties=species:S:1:pos:R:3 pbc="F F F"
H        0.00000000       0.00000000       0.00000000
H        0.45279220       0.75366068      -0.41837266
H        0.95828128       0.19788188      -1.03776884
H        0.91681749      -0.15148079       0.29079232
H        0.36912566       0.40429801      -0.29162034
H        1.60445046       0.05458924      -1.67829251
H        1.00915158      -0.12145601      -0.73219627
H        1.29089594       0.03494987      -0.59120071
H        0.81862211       0.79631579      -2.64119983
H        0.81862211       0.79631579      -2.64119983
H        0.81862211       0.79631579      -2.64119983
H        0.81862211       0.79631579      -2.64119983
H        0.81862211       0.79631579      -2.64119983
H        0.81862211       0.79631579      -2.64119983
H        0.81862211       0.79631579      -2.64119983
H        0.81862211       0.79631579      -2.64119983
H        0.81862211       0.79631579      -2.64119983
H        0.81862211       0.79631579      -2.64119983
H        0.81862211       0.79631579      -2.64119983
H        0.81862211       0.79631579      -2.64119983
H        0.81862211       0.79631579      -2.64119983
