21
Properties=species:S:1:pos:R:3 pbc="F F F"
H        0.00000000       0.00000000       0.00000000
H       -0.07115869       0.77136850       0.67323917
H        0.28465056       1.35455930      -0.02055413
H       -0.28933984       2.17103171      -0.25978556
H        0.24953420       0.36585209      -0.92585570
H        0.79963434       0.01876161      -1.65040994
H       -0.05538446       2.66607976      -1.12783861
H       -1.04960060       2.04664493       0.41834071
H       -1.30757689       1.16679728       0.74602532
H       -0.56729692       1.05451512       1.46174145
H        0.52342367       0.89545095      -2.10697031
H       -0.06804757       1.29325902      -0.62191141
H       -0.81562197       1.13998795       0.15134236
H        0.54636627       1.75379372      -1.45363379
H       -0.26676923       1.86817598       1.90412164
H       -0.00682682       1.64911163      -2.42143941
H       -1.12423563       1.74378908       1.35402775
H        0.06199554       2.64847374      -1.31851709
H        1.09968376      -0.31030068      -0.61014116
H        0.12540820       1.57774842      -0.41812754
H       -0.58068818       0.75960165      -0.49993384
