21
Properties=species:S:1:pos:R:3 pbc="F F F"
H        0.00000000       0.00000000       0.00000000
H       -0.58002573       0.67024595       0.51736289
H       -0.39613175       1.48390675       1.01955819
H       -1.18577456       0.20058492      -0.08309335
H       -0.81854630       0.15148079       0.50507069
H        0.43927437      -0.35799721      -0.72609496
H       -0.68071836      -0.25991863      -0.85442138
H        0.15992290      -0.33975005      -0.48660749
H       -0.31211016       0.58369350       0.33909702
H       -1.63848865       1.70908093       1.72717476
H       -1.63848865       1.70908093       1.72717476
H       -1.63094950       1.75856626       1.72288060
H       -1.63848865       1.70908093       1.72717476
H       -1.63848865       1.70908093       1.72717476
H       -1.63848865       1.70908093       1.72717476
H       -1.63848865       1.70908093       1.72717476
H       -1.63094950       1.75856626       1.72288060
H       -1.63848865       1.70908093       1.72717476
H       -1.63848865       1.70908093       1.72717476
H       -1.63848865       1.70908093       1.72717476
H       -1.06478167      -0.28594178      -0.53533179
