21
Properties=species:S:1:pos:R:3 pbc="F F F"
H        0.00000000       0.00000000       0.00000000
H       -0.21671417       0.94706190      -0.06457304
H        0.17617394      -0.77136850      -0.65366453
H        0.19085106       1.90540290      -0.34670821
H       -0.36823800       1.82100964      -1.13939869
H       -0.59864479       0.45201382      -0.87844050
H        0.12512362      -0.85576171      -1.62234020
H        0.43359792       0.17073518      -0.96909654
H       -1.32322145       0.18417245      -1.38002539
H       -0.63618451      -0.42909724      -0.72249115
H       -0.19386765       0.11231375      -1.74233341
H       -1.96364546       1.42052937      -0.98486215
H        0.27081719       2.49125552      -1.58178174
H        0.71819913       1.56786263      -0.94847703
H       -1.98978686       1.42052937      -1.03075850
H       -2.01264453       1.42052937      -1.07837558
H        0.66085160       1.79443884      -2.22648597
H       -2.01400924       1.39366817      -0.98656934
H        0.36099571       0.91774946      -1.78509498
H        0.87127995       1.88135552      -1.11753249
H        0.55783522       0.81967086      -0.67509234
