21
Properties=species:S:1:pos:R:3 pbc="F F F"
H        0.00000000       0.00000000       0.00000000
H        0.02715597      -1.02162731       0.09414954
H        0.52644235       0.15148079      -0.80496770
H       -0.53495127      -1.25124085       0.92157739
H        0.87465411       0.03347269      -1.70656824
H       -1.39624214      -1.20056427       1.37287641
H       -0.83339506       0.25064358       0.43668222
H       -1.74656463      -1.14988768       0.46581131
H       -1.71946597      -0.28213364       1.38138759
H        0.82513785      -0.21717089      -2.64613557
H       -2.02111268      -0.26432118       0.40056348
H       -0.11938664      -1.30477393      -0.82585812
H        0.25348312      -0.62760991      -1.35276425
H       -1.11077201      -1.56896579      -0.79975271
H       -1.66276634      -0.89871985      -1.34692407
H       -1.40866637      -1.46364474      -0.50964171
H       -0.82661712      -0.70369375       0.62969834
H       -1.78712380       0.39676145      -0.27492154
H       -0.82963657      -0.20117009       0.22255546
H       -1.72836840      -0.01887220      -1.75878000
H       -1.14849830      -0.18905941      -0.82473546
