21
Properties=species:S:1:pos:R:3 pbc="F F F"
H        0.00000000       0.00000000       0.00000000
H       -0.12270200      -0.91159266      -0.45526573
H       -0.28376624       0.69681674       0.69803083
H        0.59519100      -1.38125372      -0.91581869
H       -0.04724227       0.64614010       1.64119005
H       -0.49122107       0.39549652       2.47072101
H        0.05378789      -0.08567113       1.00691390
H        0.66152191      -1.78016496       0.02747023
H       -0.76851392      -1.20288110       0.42708841
H        0.23298645      -1.32726800       0.24041048
H       -0.78534240      -0.83702898      -0.53165710
H       -1.65423000      -0.52327192      -1.08907807
H       -0.88061333       0.14697403      -1.01416850
H       -1.43066978      -0.98504257       1.10690963
H       -0.52194393       0.63667381       2.90763021
H        0.91478115      -1.73925090      -0.12966478
H       -0.00401497       0.19765067      -0.59337389
H       -1.09082961       1.08561933      -0.86312211
H       -2.37070298      -0.25908005      -0.40337181
H        0.93175143       1.00538301      -0.63445890
H       -2.17301583       0.13983113       0.52135175
