21
Properties=species:S:1:pos:R:3 pbc="F F F"
H        0.00000000       0.00000000       0.00000000
H        0.79402828      -0.31375703       0.65969908
H        1.57512999      -0.46523783       1.22094285
H        0.02076000      -0.80880511       0.20110631
H        2.10700274      -1.15073204       1.66283643
H        2.82504106      -0.62303483       1.27038586
H        1.38834536      -0.44833884       0.26549172
H        2.90124679      -1.43950725       0.65322345
H        0.03065316      -1.66644752      -0.36252087
H        2.72556520      -0.97595918      -0.24543273
H        2.28090906      -2.14858723       0.89908457
H        1.74858820      -1.96720445       1.15466738
H        1.03221869      -1.68426001      -0.58584368
H        2.06335688      -1.99710643      -0.03781748
H        1.02939987      -1.74936593       0.53549415
H        2.64391780      -1.25910580      -1.17345357
H        1.80417657      -0.71327758      -0.81119120
H        1.39152956      -1.37175798      -0.11479404
H        2.02008486      -0.53618276       0.26147479
H       -0.13302505      -1.89288926       0.36078349
H       -0.13844025      -1.89288926       0.40168548
