21
Properties=species:S:1:pos:R:3 pbc="F F F"
H        0.00000000       0.00000000       0.00000000
H       -0.47398776      -0.23709527       0.75329894
H       -0.25149095       0.67449737       1.16901255
H        0.17482954       0.79461014       0.53487396
H       -1.26554000      -0.88333368       1.09963441
H       -2.04869270      -0.44355723       1.47557235
H       -1.82673502       0.02610379       0.65203476
H       -0.08470610       0.11800810      -0.96278757
H       -2.43082976       0.82050282       0.89145821
H       -1.42963457       0.01045710       0.74996036
H       -0.16553023       1.61108255       0.01443964
H       -0.28578234      -0.03347269      -0.02221179
H        1.00186539      -0.05803715      -0.70041156
H        1.00186539      -0.05803715      -0.70041156
H        1.00186539      -0.05803715      -0.70041156
H        1.00186539      -0.05803715      -0.70041156
H        1.00186539      -0.05803715      -0.70041156
H        1.00186539      -0.05803715      -0.70041156
H        1.00186539      -0.05803715      -0.70041156
H        1.00186539      -0.05803715      -0.70041156
H        1.00186539      -0.05803715      -0.70041156
