21
Properties=species:S:1:pos:R:3 pbc="F F F"
H        0.00000000       0.00000000       0.00000000
H       -0.01035373      -0.77460212      -0.58986890
H       -0.23055434      -0.75770313      -1.53817630
H       -0.18013656      -0.72392547       0.36755818
H       -1.08723748      -0.23175156      -1.33131194
H       -0.28920931       0.97931916       0.10303358
H       -0.59430254       0.19796216      -1.45034158
H       -0.85124111      -0.87540627       1.05656695
H       -1.99566150      -0.03699298      -0.89523983
H       -1.00974834      -0.68064767       0.06144464
H        0.05239603       1.26471913       0.33074534
H       -0.41368955       1.13660741      -1.26490998
H       -1.67758965      -0.41280630      -0.51352221
H        0.68909347       1.79067063       0.94010174
H        1.01555240       1.17576408       0.67387921
H        1.69049978       0.55041569       0.71539193
H       -1.61808968      -0.10712105       0.73695487
H       -0.28406346       1.17994452      -1.74586630
H       -1.51608789       0.61542684       1.45865011
H        0.99498594      -0.14640105       0.42551121
H       -1.26948595      -0.26678997       1.68895543
