21
Properties=species:S:1:pos:R:3 pbc="F F F"
H        0.00000000       0.00000000       0.00000000
H       -0.19310522      -0.77460212      -0.55746114
H       -0.48923290       0.01689900       0.84168071
H       -0.20610580      -1.74794257      -0.53509480
H        0.96646935       0.11800810      -0.00848137
H        1.51287818       0.16868474       0.79583842
H       -1.01332998      -0.56629181       1.41897762
H       -0.19242190      -1.16475177      -1.31468582
H        1.15798831      -0.73797220       0.80518347
H        0.26729232      -1.76625454      -1.83927619
H       -1.27173948      -1.54561090       1.25319910
H       -1.52508450      -1.56250989       0.31320357
H        0.37818980      -0.89764112       1.45305991
H       -0.23804933      -1.03595281       1.06342280
H       -0.01363930      -0.31445032       2.12716627
H        0.73248053      -0.54307455      -0.68396640
H        0.18259436      -0.60844940       0.76470429
H       -0.14140707       0.12537485       1.09241986
H       -1.24616838      -2.50461364       0.01660571
H       -1.09170449      -2.80306554      -0.95313203
H        1.26062298      -1.48363566      -0.70715463
