21
Properties=species:S:1:pos:R:3 pbc="F F F"
H        0.00000000       0.00000000       0.00000000
H       -0.78841746      -0.36585209      -0.54577839
H        0.24668363       0.83173102      -0.44207650
H        0.41805393       0.08895500       0.93308192
H        1.06944108       0.77444917       1.16514504
H        0.74232495       1.46760535       0.10387617
H       -0.33775559       0.94973910      -1.21185946
H        1.41624892      -0.05728185       0.79635143
H       -0.24141735       0.42875805      -0.41369349
H       -1.12968206       0.07397309      -1.53095007
H       -1.69431138       0.25874406      -0.75951350
H        2.09012985       0.11057524      -0.02938205
H       -0.89940917       0.93192667      -2.07066774
H       -0.53305024      -0.67968762      -1.68614984
H       -0.05945987       0.75880259      -0.26383391
H       -0.42574096       1.52667153      -1.92442203
H        1.56503403       1.44979286      -0.50943977
H        1.58605123       1.44979286      -0.48018944
H        0.57697928       1.93961310       0.87731475
H        0.33625042       1.79593420       0.86258662
H        1.17231822       1.47628319      -0.15113464
