21
Properties=species:S:1:pos:R:3 pbc="F F F"
H        0.00000000       0.00000000       0.00000000
H        0.24483983      -0.86484438      -0.37437752
H       -0.60653895       0.70907992      -0.27816749
H        0.59539682      -0.99561012      -1.38637424
H        0.57833195      -0.94493347      -2.35858917
H       -0.10499559      -0.53249216      -1.28018165
H       -0.94201660       0.65566403      -1.24663305
H       -0.23650625       1.37016249      -0.88980997
H        0.58078027       1.70251465      -1.41412735
H        0.92799652      -1.70453513      -3.04040098
H       -1.13882089       0.12992734      -1.97684312
H        0.24054131       0.52769721      -0.78213578
H        0.13310081      -1.58014822      -3.67757654
H        0.46477130       2.18884373      -1.41922081
H       -0.03813154      -0.19127280      -2.36399889
H        0.06328487       0.10846104      -1.68656898
H        0.03144908      -0.01997483      -1.60566175
H       -0.35564718       0.33467877      -3.18611979
H       -0.02147079       0.19574216      -2.68013477
H        1.15696073       0.75731075      -0.38116595
H        0.42353410       0.39087114      -1.16108799
