21
Properties=species:S:1:pos:R:3 pbc="F F F"
H        0.00000000       0.00000000       0.00000000
H        0.58115071      -0.52769721      -0.57607329
H        0.79851651      -1.45679498      -0.38219064
H        1.53396916      -0.58111310      -0.19843882
H        1.80887246      -1.13689184       0.55229348
H       -0.06534792      -0.28314662       0.92931080
H        2.09859848      -0.76588404       0.57299769
H        0.17702128      -0.15966894       0.99824500
H       -0.00194174      -1.47369397      -0.93630427
H       -0.12264767      -0.91747266      -0.08227158
H        1.31953692      -1.90106893       0.23384196
H        0.57594305      -2.51096892       0.38599640
H        0.14205498      -1.69449651       0.83146000
H       -0.18275958      -2.56164551      -0.22216737
H       -0.77587569      -1.72408354      -0.22737223
H        0.53224409      -0.75239283       0.71519756
H       -0.84456646      -1.14867425       0.92699498
H       -0.82780790      -1.11460114       0.89111137
H       -0.84731144      -1.14867425       0.89231098
H        0.31358901      -2.19579339      -1.04260278
H        1.26861203      -2.03612447      -0.70236647
