21
Properties=species:S:1:pos:R:3 pbc="F F F"
H        0.00000000       0.00000000       0.00000000
H        0.14728610      -1.02954066      -0.28719354
H        0.09445190       0.96807545       0.32746395
H       -0.85427934      -1.04735315      -0.51051652
H       -1.58652878      -0.46153229      -0.09344494
H       -0.58116746       1.55389631      -0.17619887
H       -1.13217127       1.73866725      -0.95742583
H       -1.03825414       0.65921623      -0.38582540
H       -2.16683054       0.24308527      -0.66867644
H       -1.63590479       0.15869206      -1.48049951
H        0.37353998      -0.79992712      -1.26157057
H        0.38501307      -1.65826988      -1.91520905
H        0.16050515       0.19832718      -1.36847401
H       -1.97772574       1.05812740      -0.49346808
H       -0.85954314       0.34346303      -0.92266154
H        0.07641377       0.84119475      -0.57287753
H       -1.56494784       3.03739214      -0.69038808
H        0.21035236      -1.88788342      -0.93027502
H       -1.85360205       2.73894024      -1.62896633
H       -0.74312186       2.42267752      -0.69760013
H       -2.84346056       2.47474837      -1.56808507
