21
Properties=species:S:1:pos:R:3 pbc="F F F"
H        0.00000000       0.00000000       0.00000000
H        0.75986940       0.40936196      -0.45064643
H       -0.05928391       0.99518281      -0.25284445
H       -0.73085141       1.83032036      -0.37802336
H        1.63187170       0.24969302      -0.96779406
H       -1.68007898       1.63556182      -0.03985196
H       -0.45513630      -0.81366080       0.28083447
H        0.28845763      -0.20376074       0.43298885
H        0.31537712       1.65427506      -0.77157748
H        0.07225257       2.12160873      -1.12007844
H       -1.66267419       1.37136996      -1.03142834
H        0.68356329       0.61613262      -0.47089955
H        1.91291666      -1.09804022      -0.52113533
H        1.91291666      -1.09804022      -0.52113533
H        1.91291666      -1.09804022      -0.52113533
H        1.91291666      -1.09804022      -0.52113533
H        1.91291666      -1.09804022      -0.52113533
H        1.91291666      -1.09804022      -0.52113533
H        1.91291666      -1.09804022      -0.52113533
H        1.91291666      -1.09804022      -0.52113533
H        1.91291666      -1.09804022      -0.52113533
