21
Properties=species:S:1:pos:R:3 pbc="F F F"
H        0.00000000       0.00000000       0.00000000
H        0.05110265      -0.33235219      -0.96966726
H        0.83449930      -0.94706678      -0.72119278
H        1.01044631      -0.75230819       0.27099454
H        1.60971570      -1.35642874      -1.14489460
H        2.51865792      -1.37424123      -0.66862726
H        0.54509127       0.08439321       0.80238038
H        1.85356188      -1.11030543       0.17439228
H        1.34316993      -0.77168322      -2.01158571
H        0.91244620       0.18665785      -1.76625586
H        3.04851913      -0.99578702       0.05530667
H        0.53301030       0.16662753      -1.65292788
H        1.58845103      -1.23469234      -0.80925804
H        1.08567488      -0.12577808      -1.11885190
H        0.82604480      -0.43933102      -1.18972945
H        1.23946476       0.18398207      -1.65204024
H        1.13649189      -1.01286054      -1.62542808
H        1.97204447      -0.31140110      -2.90321994
H        1.97204447      -0.31140110      -2.90321994
H        1.97204447      -0.31140110      -2.90321994
H        1.97204447      -0.31140110      -2.90321994
