21
Properties=species:S:1:pos:R:3 pbc="F F F"
H        0.00000000       0.00000000       0.00000000
H        0.50421435      -0.31530851      -0.77097952
H        0.97115791      -1.27364957      -0.60462630
H        0.05469325       0.58319080       0.77779055
H        0.87142229      -2.12244868      -0.13809246
H        1.32253611      -1.93767774       0.70476991
H        1.08885980      -0.59781444       0.22815239
H        0.52453542       0.08421108       1.46940351
H        0.81906843       0.14823958       0.08885413
H        1.11655569       0.92177308       1.50581574
H        1.52516580       0.77029228       0.63509643
H        2.36971283       0.12438715       0.24777508
H        1.03820813       0.77794939       0.55849260
H        1.99191797      -0.70734388       0.58475500
H        1.11655569       0.81014383       2.42007875
H        1.28182006       1.28177035       2.43608141
H        1.60639024       0.62356013       0.37623861
H        0.72883815      -0.41304347       1.11376238
H        0.11943233      -1.92769015       0.53265649
H        1.80241692      -1.69628918      -0.23095077
H        1.92592013      -0.95798743       1.52330875
