21
Properties=species:S:1:pos:R:3 pbc="F F F"
H        0.00000000       0.00000000       0.00000000
H        0.12529835      -0.08895500      -1.01474690
H        0.47561887       0.74860698      -0.53611422
H       -0.02337198      -0.60939014      -1.94811261
H        0.31853372      -0.82722867      -2.83338523
H       -0.33757663      -0.11369553      -1.30802095
H       -0.84368974       0.01598554       0.36914763
H       -0.69140333      -0.70284176      -2.69967318
H       -1.03560925      -0.21362801      -0.61256945
H        0.57726562       0.21150112      -3.20022178
H       -1.36336184      -0.56071848      -1.46119618
H       -1.53147316      -0.11702091      -2.76615906
H       -0.40493554      -0.85917032      -1.67490005
H       -0.36079243       1.42636919      -0.88471913
H       -1.11500359       0.29372573      -0.63751829
H       -0.26415133      -0.15435097      -3.66010618
H        0.72014564       0.73919833      -2.39450359
H        0.29189160       1.75872135      -0.16578275
H       -1.62698483       0.21264219      -2.31838369
H       -0.08056515       0.98984194      -1.90043795
H       -0.83510268       0.37334624      -3.07392263
