21
Properties=species:S:1:pos:R:3 pbc="F F F"
H        0.00000000       0.00000000       0.00000000
H       -0.29363519      -0.58319080       0.72230726
H        0.05764964       0.61471456       0.81983322
H       -0.08993431       0.01781246      -1.02221251
H       -0.69546616       0.05893576       1.08813787
H       -0.77758116       0.57359123      -1.43002677
H       -0.35954165      -0.81391859      -0.59373111
H       -1.43589807      -0.17381728      -1.67766225
H       -1.66896629       0.07583476       1.07959497
H       -2.34401989      -0.03052464      -1.62180829
H       -1.06131887      -0.92122579      -1.08235145
H       -1.45207822       0.44168684       0.14555234
H       -2.02696586      -0.50998610       0.31672275
H       -0.76784062       0.72483349      -0.48667210
H       -1.49939239      -0.05336124      -0.75222975
H       -2.71800876      -0.76062965      -0.32178986
H       -1.88443017      -0.60096073      -0.89883083
H       -2.56446862      -1.18773484      -0.11201233
H       -2.78196359       0.30701560      -2.29145527
H       -0.04454690       0.61320424       0.07254428
H       -2.19027710       0.09228177      -1.35110044
