12
Properties=species:S:1:pos:R:3 pbc="F F F"
H        0.00000000       0.00000000       0.00000000
H       -0.93989587      -0.24138860      -0.47165081
H       -0.81604803       0.36585209       0.50352919
H       -0.66568631      -0.64286757       0.44374192
H       -0.09141183       0.03349990       1.14987922
H       -0.42160162      -0.63674605       0.44626784
H        0.15269744       1.07362032       1.30050278
H       -0.07531330       0.68900657       0.31856048
H       -1.58561254      -0.11654335      -0.45464763
H       -1.00730491       0.63086516      -0.85497844
H       -1.08350444      -0.20093656      -1.28460312
H       -0.80595231       0.84400678       1.01485956
