10
Properties=species:S:1:pos:R:3 pbc="F F F"
H        0.00000000       0.00000000       0.00000000
H        0.05739931      -0.52769721       0.81627315
H        0.56912082       0.52595156       0.67290443
H       -0.75792736       0.58319080       0.18301767
H       -0.52906406       0.83383441       1.09562945
H       -0.25252366       0.36535230       0.98624510
H        0.10826479      -0.40968910      -0.14889401
H        0.55082351       0.80369174      -0.36952192
H       -0.07407779       0.70306867       0.12608576
H       -0.15581536       0.18100911       0.36192763
