8
Properties=species:S:1:pos:R:3 pbc="F F F"
H        0.00000000       0.00000000       0.00000000
H       -0.30820453      -0.91843063       0.09775501
H        0.50702512      -0.79439902      -0.40642288
H       -0.09449728      -0.49504808       0.89404780
H        0.83194900      -0.15852463       0.25550541
H        0.47454369      -1.24870872       0.65687937
H        0.51436722      -1.08593154       0.55944967
H        0.01904718       0.39874271       0.52485061
