11
Properties=species:S:1:pos:R:3 pbc="F F F"
H        0.00000000       0.00000000       0.00000000
H        0.36329272       0.89468008       0.34769225
H        0.61893660       0.58582085      -0.57188737
H        0.04873568      -0.20857817      -0.88353610
H       -0.22844326       1.05548191      -0.66897839
H       -0.58151174       0.37424493       0.37257111
H       -0.86495334       0.58582091      -0.10123348
H       -0.18145727       0.58982939      -0.00079238
H       -0.49026781       0.75802815      -0.64770073
H        0.49001706      -0.87433261      -1.04953051
H        0.02118036       0.02729148      -0.68704808
