11
Properties=species:S:1:pos:R:3 pbc="F F F"
H        0.00000000       0.00000000       0.00000000
H       -0.30729049       0.46966103      -0.79564559
H       -0.63560849      -0.28399965      -0.27385658
H       -0.74387234       0.12536231      -1.15064764
H        0.09806788      -0.78297937      -0.67485428
H        0.12700638      -0.22715572      -1.41140246
H        0.40268064      -0.02240951      -2.43424654
H        0.17607115      -0.30555612      -1.53062224
H        0.28494301      -0.95233315      -1.28249097
H        0.54716766      -1.32079446      -1.96145105
H        0.47706848      -1.24947941      -1.83712363
