6
Properties=species:S:1:pos:R:3 pbc="F F F"
H        0.00000000       0.00000000       0.00000000
H        0.87747955       0.49504808      -0.19565487
H        0.72125387      -0.36259434       0.34597880
H        0.40630877      -0.75366068      -0.46364817
H        1.26113033      -0.33668295      -0.52595258
H        0.47391415       0.04177126      -0.95621300
