7
Properties=species:S:1:pos:R:3 pbc="F F F"
H        0.00000000       0.00000000       0.00000000
H        0.45279220       0.75366068      -0.41837266
H        0.82930386      -0.11118370      -0.65991777
H        0.75077754       0.21783850       0.58046556
H        1.36773777       0.65761495      -0.03110433
H        1.45526218       0.26727051      -0.01725954
H        0.57727373       0.39262185      -0.30705070
