21
Properties=species:S:1:pos:R:3 pbc="F F F"
H        0.00000000       0.00000000       0.00000000
H       -0.02481474      -0.91159266      -0.47085762
H        0.78325254      -0.55577880       0.16026935
H       -0.35916418      -0.96226931       0.44221592
H        0.15113232      -1.10635126       0.52132970
H        0.07476182      -0.16785710       1.06318474
H       -0.61913788      -0.48861930      -0.20840330
H        0.25973180       0.03688911       2.10625362
H        0.34290373      -0.18094939       1.16090202
H        1.23328900      -0.76052499      -0.79872668
H        0.44851470      -0.51913637      -0.09873521
H       -0.30196264       0.11662431       1.77313638
H       -1.65536380       0.29842055       1.15244699
H       -2.21502519      -0.03393164       0.35894519
H       -2.41727114      -0.16512755       1.66032910
H       -2.80741048      -0.55988324       1.01146221
H       -2.00018907      -0.71942580       1.01621532
H       -2.60650945       0.44990134       1.00949121
H        0.84845972      -0.04284610       2.38886142
H        1.18393743      -0.09626201       1.42039585
H        0.54738998       0.00509126       1.51972556
