6
Properties=species:S:1:pos:R:3 pbc="F F F"
H        0.00000000       0.00000000       0.00000000
H        0.42330277      -0.73181123      -0.48304045
H        0.04239410      -1.01495790       0.36713451
H        0.98954940      -0.92656982       0.35048085
H        0.51024222      -0.19475859       0.77800620
H        0.92127496      -0.02273130      -0.03886673
