21
Properties=species:S:1:pos:R:3 pbc="F F F"
H        0.00000000       0.00000000       0.00000000
H        0.14728610      -1.02954066      -0.28719354
H        1.02612162      -0.01781246      -0.00900486
H        0.81517047      -0.50358909      -0.86219734
H        0.05656493       0.11112547      -1.17837381
H        0.11558467       0.10657445      -0.46592301
H       -0.07138212      -0.00050381      -0.27310795
H        0.21263474      -1.78622985      -0.36176437
H        0.21952622      -1.78233576      -0.38961738
H       -1.00419080      -1.13218105      -0.54394281
H       -1.00697410      -1.09117436      -0.54456341
H       -1.00419080      -1.13218105      -0.54394281
H       -1.00697410      -1.09117436      -0.54456341
H       -1.00697410      -1.09117436      -0.54456341
H       -1.00419080      -1.13218105      -0.54394281
H       -1.00697410      -1.09117436      -0.54456341
H       -1.00419080      -1.13218105      -0.54394281
H       -1.00697410      -1.09117436      -0.54456341
H       -1.00419080      -1.13218105      -0.54394281
H       -1.00419080      -1.13218105      -0.54394281
H       -1.00697410      -1.09117436      -0.54456341
