6
Properties=species:S:1:pos:R:3 pbc="F F F"
H        0.00000000       0.00000000       0.00000000
H       -0.26684549      -0.92909771       0.11675546
H        0.67698920      -0.53018653       0.17480618
H        0.58143818       0.05300426      -0.59902811
H        0.43466067      -0.96167612      -0.72431427
H       -0.30566213      -0.37743080      -0.61978692
