7
Properties=species:S:1:pos:R:3 pbc="F F F"
H        0.00000000       0.00000000       0.00000000
H       -0.56912082      -0.52595156       0.67290437
H       -1.01378036       0.15966894      -0.00889638
H       -0.17617097       0.58582085       0.82407618
H       -1.02965581       0.30267423       1.19750953
H       -0.93182468       0.74285972       0.76649559
H       -0.56323802       0.24862394       0.90893942
