21
Properties=species:S:1:pos:R:3 pbc="F F F"
H        0.00000000       0.00000000       0.00000000
H        0.58115071      -0.52769721      -0.57607329
H       -0.12758178      -1.11088800      -0.90110826
H       -0.35543507      -0.71246815      -0.38442880
H        0.13470551      -1.32236814       0.19509274
H        0.85499638      -0.40936196      -0.22240727
H        1.05089140      -1.50713909      -0.07789797
H        0.14427876      -0.83756196       0.57532376
H        0.65761638      -0.67485082      -0.10902299
H       -0.49979872      -1.09672940      -1.62689507
H       -0.02443403      -1.07800353      -0.65849173
H       -0.09795077       0.92164785       0.55235696
H       -0.04156978       0.90162408       0.59116262
H        0.02667054       0.53689873       0.37928072
H        0.48069048      -0.71274006      -0.38954666
H       -0.46621266       0.51814580       0.31077418
H       -0.44246358       0.02876242      -0.32984909
H       -0.43518168       0.55576533       0.29008913
H        0.17084587      -0.67785096      -0.30616927
H       -0.41986337       0.59070700       0.23914406
H        0.72184277       0.17604525       0.85347641
