6
Properties=species:S:1:pos:R:3 pbc="F F F"
H        0.00000000       0.00000000       0.00000000
H       -0.02074104      -0.97334045      -0.01546210
H        0.03306882      -0.88438547      -1.03649843
H       -0.25029805      -0.15148079      -0.92869008
H       -0.63784713      -0.38933739      -0.43806469
H        0.71426761      -0.43977645      -0.49444848
