21
Properties=species:S:1:pos:R:3 pbc="F F F"
H        0.00000000       0.00000000       0.00000000
H        0.75986940       0.40936196      -0.45064643
H        0.49412510       0.77521408       0.47068748
H        0.81729859      -0.08963031       0.77998334
H        0.64040047      -0.54497540      -0.29889554
H        0.58809751      -0.67282110       0.03472078
H        0.87682128       0.02212769       0.37682548
H        0.73498988       1.80475473       0.68553042
H        0.80909896       0.91096395       0.30644363
H        0.66960078       0.83667928       0.35104862
H        1.29957306       0.55655015      -0.79688483
H        1.29494834       0.57871574      -0.79391789
H        1.29957306       0.55655015      -0.79688483
H        0.92748880       1.04358172      -0.50059104
H        1.01600671       1.00385356      -0.56811470
H        1.49049950       0.42900133       0.41321984
H        1.49049950       0.38972259       0.41321984
H        0.18898129       0.66252565      -1.39429140
H        0.18898129       0.66252565      -1.39429140
H        0.18898129       0.66252565      -1.39429140
H        0.18898129       0.66252565      -1.39429140
