6
Properties=species:S:1:pos:R:3 pbc="F F F"
H        0.00000000       0.00000000       0.00000000
H        0.15274149      -0.33235219      -0.95892441
H        0.33649066       0.63587439      -0.65612394
H       -0.82716215       0.05226156      -0.72230589
H       -0.45247129       0.83173102      -0.22705542
H       -0.28090489       0.51644695      -1.15780091
