21
Properties=species:S:1:pos:R:3 pbc="F F F"
H        0.00000000       0.00000000       0.00000000
H       -0.43620220       0.58582085      -0.72101700
H       -1.28192008       0.23873037      -0.38583001
H       -0.59767133      -0.37116969      -0.05736926
H       -0.89405560       0.26419187       0.42917484
H       -0.81502354       0.03289741       0.12449908
H       -0.64817226       0.88408566       0.12423128
H       -0.56602108       0.38107467      -1.77237487
H       -0.49797851       0.29668146      -0.80474424
H       -0.60190356       0.29211968      -0.75055134
H        0.39512795      -0.29662627       0.58163279
H        0.39512795      -0.29662627       0.58163279
H        0.39512795      -0.29662627       0.58163279
H        0.39512795      -0.29662627       0.58163279
H        0.39512795      -0.29662627       0.58163279
H        0.41529661      -0.29662627       0.56740767
H       -0.59112459       0.01233170       0.39403957
H       -0.59112459       0.01233170       0.39403957
H       -0.60458899       0.01233170       0.37305182
H       -0.59112459       0.01233170       0.39403957
H       -0.11816493      -1.09085810      -0.27665257
