21
Properties=species:S:1:pos:R:3 pbc="F F F"
H        0.00000000       0.00000000       0.00000000
H        0.59380746      -0.49897972      -0.58861941
H       -0.04745978       0.11573485      -1.10264885
H       -0.53746217       0.29845181      -0.82181793
H       -0.41726178      -0.18271697      -0.19298035
H        0.06048828      -1.29358983      -0.76813596
H       -0.53312188      -0.69208705      -0.40185845
H        0.22522186      -2.35788631      -0.70284641
H        0.33679876      -1.39742351      -0.58829278
H       -1.11362886      -2.27981687      -1.37469745
H       -2.07159925      -1.91396475      -1.41675746
H       -1.62763822      -2.32332659      -0.65296274
H       -0.86890000      -1.71342659      -0.63298339
H       -1.31205499      -1.33275497      -1.48314917
H       -0.03602959      -1.35279691      -0.25338700
H       -0.18777563      -1.53382039      -0.04647803
H       -0.11924344      -1.23796892      -0.11330459
H       -1.45171082      -2.03427792      -1.00687635
H       -1.45171082      -2.03427792      -1.00687635
H       -1.44198716      -2.05811620      -1.00063825
H       -1.07660019      -1.05181217      -0.78782034
