6
Properties=species:S:1:pos:R:3 pbc="F F F"
H        0.00000000       0.00000000       0.00000000
H       -0.04850490       0.68549418       0.68978679
H       -0.64886862       0.40936196      -0.59954423
H       -0.67262721       1.18073046       0.07702810
H       -0.52070576       0.17480743       0.21253668
H       -0.00598124       0.96807545      -0.34076095
