9
Properties=species:S:1:pos:R:3 pbc="F F F"
H        0.00000000       0.00000000       0.00000000
H       -0.73394406      -0.63587439       0.07106813
H       -0.23909721      -0.45110342      -0.74688494
H        0.18809371      -0.92909771       0.22239406
H       -0.07932411      -1.27618814      -0.64713275
H        0.68173862      -0.26633245      -0.49001524
H        0.11735719      -0.97925466      -0.63682580
H       -1.70445418      -0.43112820       0.49570474
H       -0.88219023      -0.61589921       0.00805473
