7
Properties=species:S:1:pos:R:3 pbc="F F F"
H        0.00000000       0.00000000       0.00000000
H        0.30968034       0.89379078      -0.23086154
H       -0.43851107       0.52793872      -0.83059961
H        0.66211379      -0.11800810      -0.70408821
H        0.64865625       0.64314723      -1.10854828
H       -0.06007624       0.05995643      -1.43358326
H       -0.02497130       0.28956997      -0.43389875
