7
Properties=species:S:1:pos:R:3 pbc="F F F"
H        0.00000000       0.00000000       0.00000000
H        0.63883960       0.60990006      -0.40983751
H        0.61630005      -0.41450709      -0.46819752
H       -0.06203870       0.83173102      -0.50242972
H        0.31422755       0.34570819      -1.34693599
H       -0.24953414      -0.36585209      -0.92585570
H        0.21398258       0.25573885      -1.13320494
