21
Properties=species:S:1:pos:R:3 pbc="F F F"
H        0.00000000       0.00000000       0.00000000
H        0.65604281      -0.46966103       0.54505712
H       -0.29744625      -0.69927454       0.84748071
H        0.69707757      -1.05285180      -0.23357350
H       -0.52729338      -0.77460212      -0.26460201
H        0.17213321      -1.38931668       0.16696766
H        0.39112210      -0.89898902       0.17626610
H       -0.48086932      -0.59409398      -0.28518328
H        0.02884650      -0.98214400      -0.69615340
H       -0.20354128      -0.11492020       1.13477385
H        0.60880351       0.11469334       1.71846676
H        0.70951951      -0.50002122       0.90280366
H        0.00400381      -0.19475162       0.24096751
H        0.05695592      -0.82733589       0.10431945
H        0.12885323      -0.58864421       0.01142627
H       -0.38344610      -1.23617327       0.47711709
H       -0.22572711      -0.41788834       0.49466729
H        0.30016512      -1.42196918      -1.70283651
H        0.30016512      -1.42196918      -1.70283651
H        0.30016512      -1.42196918      -1.70283651
H        0.30016512      -1.42196918      -1.70283651
