10
Properties=species:S:1:pos:R:3 pbc="F F F"
H        0.00000000       0.00000000       0.00000000
H       -0.13959605      -0.55577880       0.78719991
H        0.81795108      -0.22342661       0.94835037
H        0.64582705       0.15502760       0.06789219
H        0.24876517       0.48949561       0.82143676
H        0.80918127      -0.49897972      -0.21048956
H        0.19868067      -0.55062485       1.10386968
H        0.43400463      -0.57881111       0.62689167
H        0.28811502       1.41114342       1.38102961
H        0.14787562       0.56234431       0.92503190
