6
Properties=species:S:1:pos:R:3 pbc="F F F"
H        0.00000000       0.00000000       0.00000000
H        0.52691501       0.55577880      -0.60127473
H       -0.27661681       0.06073073      -1.00449646
H       -0.86698300       0.08439321      -0.43506229
H       -0.43367445       0.85899532      -0.83543241
H       -0.17853189       0.75463915      -0.07432783
