14
Properties=species:S:1:pos:R:3 pbc="F F F"
H        0.00000000       0.00000000       0.00000000
H       -0.93989587      -0.24138860      -0.47165081
H       -0.69275069       0.36585209       0.66300273
H        0.11180434      -0.81366080       0.52298838
H       -0.83852470      -0.89805400       0.71744502
H       -1.09243345      -0.51399553       0.54391164
H       -0.14254808      -0.49179032       0.54032201
H       -0.75989807      -0.81572163       0.07903495
H        0.74271166       0.70461756      -0.34061822
H       -0.05315208       0.26484111       0.00760368
H       -0.18167430      -0.91722375      -0.10768080
H        0.83841807       0.05565614      -0.29047000
H        0.57509226       1.33883739      -0.39056277
H       -0.30568588       0.84378934      -0.21033767
