17
Properties=species:S:1:pos:R:3 pbc="F F F"
H        0.00000000       0.00000000       0.00000000
H       -0.58002573       0.67024595       0.51736289
H        0.35125691       0.95339257       0.54188573
H       -0.40523186       0.17126623       1.33499813
H        0.86232990      -0.01689900       0.45184341
H        0.26441431       0.23046950       0.72127104
H        0.37757197       0.65893614      -0.23545846
H       -0.86252898       0.58062816       0.57911253
H       -0.28151083      -0.33982530       0.33302534
H       -0.58047986      -0.22096682       0.58028197
H        0.13420662       0.60588062       0.18549275
H        0.07473567       0.33392602       0.09225154
H       -0.16225499       0.07661780       0.77681684
H       -0.18869990       0.15095809       0.62872672
H        0.98280889      -0.33423752       1.01540935
H        1.00251269      -0.33423752       1.01083398
H        0.08483452      -0.03105762       0.69844609
