14
Properties=species:S:1:pos:R:3 pbc="F F F"
H        0.00000000       0.00000000       0.00000000
H       -0.78841746      -0.36585209      -0.54577839
H       -0.65282911       0.60990006      -0.38716537
H        0.31386429       0.36585209      -0.90607142
H       -0.47216773       0.55062306      -1.45019841
H       -0.26408380      -0.01876161      -1.28919172
H       -0.21528602       0.29523054      -0.97303838
H       -0.64360130      -0.58283806       0.82434428
H       -1.50392807      -0.37677461       0.56799781
H       -1.25426424      -0.05514085       1.36903441
H       -1.82149041       0.32331336       0.67398918
H       -0.68172258       0.38463560       0.71569407
H       -1.11716199       0.05912149      -0.02418560
H       -0.81367910       0.08192475       0.37369737
