12
Properties=species:S:1:pos:R:3 pbc="F F F"
H        0.00000000       0.00000000       0.00000000
H       -0.46163812      -0.66108263       0.54582143
H        0.48334879      -0.15148079       0.83155787
H        0.44709241      -0.77460212      -0.38491675
H        0.47135982      -1.46009636       0.30614737
H       -0.01939592      -0.71268785       0.80999577
H        0.43980083      -0.53031689      -0.03248250
H        1.32788968      -2.10633469       0.41954893
H        0.70630354      -1.37452340       0.25785792
H        0.69090688      -2.23117995       0.52675009
H        0.70507073      -2.27568841       0.54699033
H        1.25934553      -2.70082641       0.69287443
