8
Properties=species:S:1:pos:R:3 pbc="F F F"
H        0.00000000       0.00000000       0.00000000
H        0.11786898      -0.15148079      -0.95457917
H        0.35930949      -0.63587439      -0.64391094
H        0.12846807      -0.41803589       0.27658862
H        0.25356483      -0.76743180      -0.73652571
H       -0.66585660      -0.28862536      -0.14994484
H       -0.69656175      -0.24955939      -0.17512161
H       -0.72341448      -0.24955939      -0.20418352
