21
Properties=species:S:1:pos:R:3 pbc="F F F"
H        0.00000000       0.00000000       0.00000000
H        0.12256700       0.83228827       0.37498182
H       -0.23619518       0.33235219       0.94184804
H        0.98128605       0.12438690       0.27373242
H        0.58596146       0.88857353       1.20261621
H        0.96366292       0.36262724       0.51653409
H        0.67155099      -0.13119590       1.06203043
H       -0.58209193      -0.48731983      -0.76669139
H       -0.31219605      -0.04754338       0.05902880
H        0.05530053      -0.40758461      -0.90881312
H        1.10960448      -0.55056405       1.95442426
H        0.90383869      -0.20347357       1.06828117
H        0.48464483      -0.38121027       1.83793294
H        1.52790380      -0.48565403      -1.18330383
H        0.67458761      -0.64532298      -1.73073530
H        0.59048462      -0.30778274      -0.93502915
H        0.89535201      -0.35488832      -0.31906664
H        0.74279463      -0.59464633      -0.76076591
H       -0.98668212      -0.09656310       1.77333391
H       -0.13379097       0.37309793       1.76584923
H       -0.16441816       0.08820787       1.28568387
