6
Properties=species:S:1:pos:R:3 pbc="F F F"
H        0.00000000       0.00000000       0.00000000
H        0.05321160       0.83173102       0.50344110
H        0.30630979       0.87984765      -0.28302526
H       -0.49712980       0.55622131      -0.70484304
H       -0.58675474       1.16408324      -0.22683907
H       -0.79198402       0.36818293       0.15117502
