7
Properties=species:S:1:pos:R:3 pbc="F F F"
H        0.00000000       0.00000000       0.00000000
H        0.24483983      -0.86484438      -0.37437752
H        0.25029811      -0.15148079      -0.92869008
H        1.24171054      -0.48023063      -0.52420557
H        1.10003018       0.45841467      -0.74084491
H        1.02488530       0.05341591      -0.00899401
H        0.82593834      -0.02728242      -0.25547299
