6
Properties=species:S:1:pos:R:3 pbc="F F F"
H        0.00000000       0.00000000       0.00000000
H       -0.19310522      -0.77460212      -0.55746114
H       -0.67751890      -0.58319080       0.38589844
H        0.47397444      -0.84879911      -0.05430691
H        0.16182128      -0.49917299       0.75695312
H       -0.12565482      -1.27377510       0.24177349
