9
Properties=species:S:1:pos:R:3 pbc="F F F"
H        0.00000000       0.00000000       0.00000000
H       -0.07115869       0.77136850       0.67323917
H        0.24711506       0.72069186      -0.24556154
H       -0.82922196       1.00098205       0.02059716
H       -0.69202507       0.47291669      -0.08753365
H        0.22966027       0.83312494      -0.10072715
H       -1.40502071       0.20087281      -0.09379051
H       -1.12792969       1.44075847       0.83633691
H       -0.77062726       0.76492333       0.07495064
