10
Properties=species:S:1:pos:R:3 pbc="F F F"
H        0.00000000       0.00000000       0.00000000
H        0.93511528      -0.39891118      -0.14054634
H        0.42682546      -0.69736302      -0.98071998
H        0.48697758      -1.13072240       0.31954706
H       -0.41714233      -1.01267147      -0.61145067
H       -0.14747381      -0.74803966      -0.19607151
H       -0.30951908      -0.39891118      -0.89352775
H        0.61297053      -0.97591430      -0.47144765
H       -0.36381182       0.83513749       0.57819861
H       -0.01227403       0.10332626       0.04067230
