12
Properties=species:S:1:pos:R:3 pbc="F F F"
H        0.00000000       0.00000000       0.00000000
H        0.13252793       0.60990006       0.74734145
H       -0.30078232       0.97931916       0.06154618
H       -0.96739101       0.71512729       0.79582083
H       -0.62096334      -0.03853339       1.30576622
H       -0.26300341      -0.21783850       0.91183138
H       -0.22893471       0.07225972       0.48804247
H       -1.21290958       1.33099031       1.64703214
H       -0.42330110       0.92162836       1.25079715
H       -0.60452765       0.74779952       1.15936327
H       -0.42356128       1.21655011      -0.70927107
H       -0.35042721       0.77672493       0.33076549
