6
Properties=species:S:1:pos:R:3 pbc="F F F"
H        0.00000000       0.00000000       0.00000000
H        0.45934626      -0.55622131       0.73002923
H        0.96798605       0.33235219      -0.07660951
H        1.20436251      -0.13730884       0.74290591
H        0.43470439       0.31530851       0.81220293
H        0.79428488      -0.55577880      -0.09100734
