21
Properties=species:S:1:pos:R:3 pbc="F F F"
H        0.00000000       0.00000000       0.00000000
H        0.93511528      -0.39891118      -0.14054634
H        1.84799397      -0.69736302       0.22125866
H        0.58651155      -0.55858010       0.81145430
H        1.31990755      -1.42917418      -0.14430673
H        1.76543176      -1.47196507       0.80541277
H        0.93202513      -0.52043515       0.15685521
H        1.77943337      -0.70061737       1.20413792
H        0.95137656      -1.14039385       1.46677744
H        0.36891747      -1.45570230       0.75306672
H        1.30979109      -1.95686626       0.95860845
H        1.48291767      -0.04792088       0.71401459
H       -0.72127312       0.11800810       0.64335060
H        0.95117360      -1.86506426       0.08864099
H        0.24777400      -1.28813183       0.23257086
H       -0.45940837      -0.52485949      -0.11260712
H        0.08303183       0.56228203       0.57969534
H        0.88377321      -0.31173915       1.21594632
H        0.83031648      -1.87087631       0.66486639
H       -0.29703629       0.00606072       1.35396278
H        0.53878409      -0.49291900       1.37597191
