20
Properties=species:S:1:pos:R:3 pbc="F F F"
H        0.00000000       0.00000000       0.00000000
H        0.59380746      -0.49897972      -0.58861941
H       -0.05984116       0.05724159      -1.15136743
H       -0.27324203      -0.96807545      -0.20369731
H        0.02012189      -0.94868147      -1.33858013
H       -0.87702882      -0.43780649      -1.52614141
H       -1.16802204      -0.78330445      -0.54028189
H       -1.08724344       0.18593180      -0.49427235
H       -0.81565690      -1.44372952      -1.00733232
H       -0.92451656       0.33356202      -0.85081965
H       -0.74988753      -0.31537896       0.11403133
H       -1.46694613      -0.73464960      -1.15255284
H       -0.39409497       0.47923118      -0.32193565
H        0.00087410      -1.33654165      -0.57300615
H       -1.33498716      -0.06389838      -0.53528672
H       -1.20888829      -0.95040852      -1.65574038
H       -0.60472190      -0.00480276      -1.50985146
H        0.12033632       0.29845181      -0.97456121
H       -0.10847049      -0.00812036      -0.82580721
H       -0.77975911      -0.81059009      -0.16397002
