13
Properties=species:S:1:pos:R:3 pbc="F F F"
H        0.00000000       0.00000000       0.00000000
H        0.13252793       0.60990006       0.74734145
H       -0.31683624       0.96807545       0.12557305
H       -0.07075658       0.56916428      -0.78746510
H        0.89932179       0.90151644      -0.83005661
H        0.92175406      -0.08895500       0.44247073
H        0.23596281       1.49657118      -0.47256273
H        1.16394114       1.47967219      -0.17823043
H        0.73441780      -0.04555029      -0.62271011
H        1.38478768       0.74786097       0.42487827
H        1.47865868       0.52306223      -0.14507324
H        0.63965148       1.44467771       0.31288543
H        1.04775727       0.92520857       0.64247656
