21
Properties=species:S:1:pos:R:3 pbc="F F F"
H        0.00000000       0.00000000       0.00000000
H        0.75986940       0.40936196      -0.45064643
H        0.40375447       0.80827314       0.42535356
H        0.91700792       0.09919322       0.85177767
H        0.38078615      -0.47048569      -0.62449944
H        1.40271187       0.68501407       0.16313446
H        0.23566118      -0.81366080       0.48008421
H        0.70947564      -0.86433744      -0.36902866
H       -0.06031197      -0.00819927       0.83928478
H        1.53595066      -0.17382884      -0.37549818
H        1.13691330      -0.77994424       0.50173867
H        1.11748219      -0.90197527      -0.05492103
H        1.58632851      -0.16046363       0.47903031
H        0.80953807      -0.71700203       0.98567623
H        0.86367005       0.04521663       1.28282499
H        0.91712993      -0.58002084      -0.67361438
H        0.27323508      -1.15183187      -0.03130665
H        0.32026288       0.69250858       0.37071523
H        0.76856768       1.87831998       0.81419677
H        0.76856768       1.87831998       0.81419677
H        0.60113704       2.24417210       1.75835943
