21
Properties=species:S:1:pos:R:3 pbc="F F F"
H        0.00000000       0.00000000       0.00000000
H       -0.43620220       0.58582085      -0.72101700
H       -1.34547842       0.30267423      -0.92376190
H       -0.55256003      -0.16698679      -0.60950124
H       -0.77203155      -0.58582085       0.33779436
H       -0.18509442       0.89957786       0.28029644
H       -1.53173280       0.00000000       0.70247483
H       -1.21547699       1.11914659      -0.31565309
H       -1.71316075      -0.39891118      -0.22557563
H       -1.85076237       0.44656652       0.11290786
H       -0.45111397       0.18477097       0.84286225
H       -1.91532242       0.61798275      -0.19993919
H       -0.87945998      -0.62245816      -0.32109916
H       -1.24395168       0.80957937       0.49521828
H       -0.59517103       0.30663955      -0.38448811
H       -1.09200394      -0.44057742       0.62713712
H       -1.08667850       1.01120710       0.43202877
H       -1.30392551       0.32322708       0.25954086
H       -1.22326744       0.52739567       0.23249024
H       -0.94568419       0.52739567       0.16803437
H       -1.41902328       0.07912725      -1.75968838
