21
Properties=species:S:1:pos:R:3 pbc="F F F"
H        0.00000000       0.00000000       0.00000000
H        0.38154608      -0.49897972      -0.74397767
H       -0.14646450      -1.01237965       0.08342265
H       -0.88833225      -0.45615834      -0.35654777
H       -0.83035380      -1.45441270      -0.12535375
H       -0.80403632      -0.60763913      -1.31467545
H        0.52256840      -0.77460212       0.27381527
H       -0.77667284      -1.19082999      -0.53544462
H       -0.27084190      -0.99795943      -1.26692128
H        0.12575272       0.01781246      -1.01842666
H        0.55185169      -0.81391859      -1.29178381
H        0.71721160      -1.10293090      -0.56442815
H        0.17228866      -0.83725268      -1.53237021
H       -0.83711123      -0.00182692      -0.42430711
H        0.59012341       0.65023506      -1.39065850
H        0.04091609      -1.64689589      -0.59412110
H       -0.22901410       0.15125534      -1.22304630
H        0.82143503      -1.62999690      -1.17598498
H       -0.19191819      -1.30093455      -1.55717254
H        0.19550937      -2.06148648      -0.48652309
H        0.06309104      -2.12916994      -1.02081239
