21
Properties=species:S:1:pos:R:3 pbc="F F F"
H        0.00000000       0.00000000       0.00000000
H        0.05110265      -0.33235219      -0.96966726
H        0.44725776      -0.82740027      -0.16262800
H        0.53326833      -0.29970306       0.65112799
H        1.25190139      -0.64262927      -0.67883450
H        1.11601245      -0.31027707       0.28262281
H        0.58763713       0.75366068       0.18638428
H        1.64128804       0.09010243      -0.27905935
H        1.40478492       0.22624850       0.52014041
H        0.95637572       0.78691918      -0.59317005
H        0.07600521       0.57430470      -0.61552888
H        0.72948158       0.27754787      -1.31008601
H        1.11114168       0.04216508      -1.03071404
H        0.43159154       0.63894224       0.41307813
H        0.42853707      -0.32732075      -1.09200835
H        1.79924643      -0.74016917      -0.03913701
H        1.10343850      -0.68401396       0.78355688
H        1.32098615      -1.21217704      -0.66906846
H        1.48267829      -0.55109441      -1.36540627
H        1.13422310       0.45357943      -1.18282282
H        1.42480409       0.63091385      -1.40855050
