21
Properties=species:S:1:pos:R:3 pbc="F F F"
H        0.00000000       0.00000000       0.00000000
H       -0.77018702      -0.01689900       0.59547228
H       -0.35009044      -0.73944688      -0.00015110
H       -1.11301064      -0.97256428       0.74547112
H       -0.47937673      -1.47154403       0.19995463
H        0.00426513      -1.52495992       1.10359240
H        0.65072167      -0.19475858       0.76938576
H       -0.80823374      -0.96873862       1.39305282
H       -0.06956531       0.26419187       0.98928624
H        0.35296559      -0.66731751       1.54651618
H       -0.94480830      -0.28707010       1.41619205
H        0.56721419      -1.10895514       0.50495541
H        0.50686973      -1.08653736       0.30514935
H       -0.32336968      -0.09038508       1.78746712
H       -0.00401467      -0.06923160       1.54074991
H       -0.59075940      -1.35597289       0.58614981
H       -0.43844581      -0.94853860       1.76728272
H       -0.10131237      -1.03232312       0.57131344
H        0.06471680      -1.01156473       0.61229318
H       -0.35487390      -0.36248073       2.44562244
H       -0.35487390      -0.36248073       2.44562244
