12
Properties=species:S:1:pos:R:3 pbc="F F F"
H        0.00000000       0.00000000       0.00000000
H       -0.33764970       0.29845181       0.92208624
H       -0.77523375      -0.25732699       0.25298905
H       -1.35143006       0.13878287       0.91318989
H       -0.66234154       0.05798152      -0.66128492
H       -1.45295215       0.07488052      -0.09320897
H       -1.07993770       0.84948266      -0.55027866
H       -0.14247739       0.87164235      -0.53575259
H       -1.52577209       0.95472819       0.31743228
H       -0.82244164       0.97162718       0.99056047
H        0.05957665       0.98965043       0.40939772
H       -0.74501491       1.38098907       0.11050999
