21
Properties=species:S:1:pos:R:3 pbc="F F F"
H        0.00000000       0.00000000       0.00000000
H        0.35866648      -0.83756196      -0.47241095
H       -0.62661618      -1.10175383      -0.58530259
H       -0.37497190      -0.70907992       0.55196261
H       -0.20466828      -0.55441535      -1.21439672
H       -1.11925328      -0.80505896      -0.99355078
H       -0.27382106      -1.39334083       0.01659855
H       -1.22016752      -0.24553183       0.19969654
H       -0.50976491       0.36436823      -0.06753179
H       -0.80835694       0.31530851      -0.44181511
H        0.22823864       0.14175719      -0.75034356
H       -1.31927633      -0.63209283      -0.08760664
H       -0.70421863       0.15429097      -1.16602504
H       -0.80326408      -1.12537944       0.21067458
H        0.26506254      -1.00734472      -0.03941882
H       -1.28819966      -0.02049237      -0.47555065
H       -0.62285328       0.07769263       0.14222902
H       -0.57806545      -1.31605625      -0.65961969
H       -0.03074203      -1.07568681      -1.27294075
H        0.82370299      -0.89091587      -1.70171154
H        0.85167462      -0.89091587      -1.64071989
