21
Properties=species:S:1:pos:R:3 pbc="F F F"
H        0.00000000       0.00000000       0.00000000
H        0.50912565      -0.18477097       0.80914259
H       -0.41588813       0.11368084       1.13868761
H       -0.20708740      -0.80474979       1.38556480
H       -0.88603532      -0.61997879       0.71254897
H        0.04924184      -1.02162731       0.08471613
H        0.44618398      -0.77136850      -0.50915068
H        1.04001641      -1.28581917       0.04121595
H       -0.64497066      -1.44761729       0.71601015
H        0.60104406      -1.32007909       0.89697510
H        1.51253021      -0.64295161       0.68679780
H        1.49618065      -0.35980499      -0.24466425
H        0.90624416       0.39891118      -0.27002844
H        0.91206759      -0.03305155       1.15104723
H        0.67546088      -0.37326020       1.08849704
H        0.73151726       0.08446893      -0.50205183
H       -0.43347493      -0.35578692      -0.16989964
H        0.70368820      -0.95251882       0.62278348
H        1.64156199       0.16033816       0.43538755
H       -0.44781429      -0.23340964       2.04784632
H       -0.43894291       0.15462333       0.32763222
