21
Properties=species:S:1:pos:R:3 pbc="F F F"
H        0.00000000       0.00000000       0.00000000
H        0.36038706      -0.22961354      -0.93312520
H       -0.42804071      -0.77136850      -0.52449566
H       -0.04702225      -0.68697530      -1.41655159
H       -0.43928143       0.16182381      -1.68809128
H       -0.95336115      -0.63257521      -1.29062915
H        0.20883022       0.73084933      -0.98413962
H       -0.69016290       0.63587439      -0.25961483
H       -0.18243973       0.06976670      -1.58241928
H       -0.63427275       0.48946071      -1.61265862
H        0.64061654       0.33557609      -0.83031154
H       -0.95308304      -0.30622929       0.05125087
H       -0.41183996       0.13082989      -0.95089978
H       -0.57100546      -0.04007280      -1.22462845
H        0.68304300       0.06901169      -1.31254089
H       -1.11357665       0.30515742      -0.54423475
H        0.40108863      -0.84663814      -0.77154660
H       -0.61442709      -1.53097010       0.21873558
H       -0.64757347      -1.50391948       0.23662317
H        1.02801633      -1.36678123      -0.47060171
H       -1.24066782       0.23773563      -0.56157231
