21
Properties=species:S:1:pos:R:3 pbc="F F F"
H        0.00000000       0.00000000       0.00000000
H       -0.49101692      -0.19475858      -0.87994057
H        0.10089713       0.52778929      -0.45463344
H       -0.69018590      -0.68549418       0.04244987
H       -0.27431527      -0.15954262       0.81946373
H       -1.23949254       0.41514146      -0.75397569
H       -0.67113441       1.11361015      -0.11683908
H       -1.23949254      -0.43365765      -0.27690020
H       -1.09124231      -0.22891144       0.77201748
H       -0.86633551       0.67801934       0.85587591
H       -1.44289565       0.61463046      -0.43849865
H       -1.44703484       0.56569868       0.33605048
H        0.26660103       0.30995080       0.47979125
H       -0.40261799       0.99544501       0.30570963
H       -1.32444084      -0.31414896      -0.06257179
H       -0.60877872       0.64230299       0.90000111
H       -0.61652064       0.61138672       0.01623439
H       -0.07623538       0.24602081      -0.88358057
H       -1.11477280       0.14529416       0.04289442
H       -0.72435164      -0.36428881      -0.13953239
H       -1.07499826       0.37532061       0.13012904
