21
Properties=species:S:1:pos:R:3 pbc="F F F"
H        0.00000000       0.00000000       0.00000000
H       -0.04588301       0.64844042       0.65250099
H       -0.35733262       0.34709048      -0.83660173
H       -0.39001274       0.77858007       0.09402853
H        0.40309465       1.42144763       0.19903319
H        0.88421553      -0.19475858      -0.48327625
H        0.05488274       1.30343950      -0.70256728
H        0.46904880      -0.08337080       0.26862788
H        0.86994845       0.93158704       0.48179162
H        1.12329364       0.94848603      -0.45820391
H        1.44482040       0.62171382      -0.21416846
H        0.76654947       0.17388391      -0.92808276
H       -0.13079667      -0.10926270      -0.67776537
H        0.52780867       0.03779626       0.66106600
H        0.68911242       0.66756511      -1.07870209
H        1.02036703       1.35685539      -0.35860404
H        0.10770809       0.44579113      -1.03420949
H        1.11509752       0.14685810       0.20204639
H       -0.46064243       2.53979635      -1.25077403
H       -0.98191535       1.95397544      -0.58864689
H       -0.06540191       1.79238784      -0.66897559
