21
Properties=species:S:1:pos:R:3 pbc="F F F"
H        0.00000000       0.00000000       0.00000000
H        0.50421435      -0.31530851      -0.77097952
H        0.94536233      -1.15044594      -0.24938476
H        0.90800345       0.34709048       0.05584690
H        0.00689960      -1.36828446      -0.39043427
H        0.51035130      -0.23873037       0.79882103
H        1.43735945       0.13830876      -0.47500849
H        1.37750411      -0.26280957       0.65221262
H        1.44950485      -0.71421969      -0.74608779
H        1.47943771      -1.18388069       0.10631084
H        1.94594908      -0.30485773      -0.01531637
H        1.46071124       0.40806448       0.30813986
H        0.15595078      -0.79461014       0.54068005
H        1.05221248      -1.17306435       0.50132948
H        0.36246401      -0.67146772       0.27390325
H       -0.73396277      -2.03853035      -0.15545070
H       -1.11734962      -1.26885128      -0.48552120
H        0.71992326      -1.86397910      -0.39669150
H       -0.42454273      -2.31975150       0.60568595
H       -0.51566875      -2.14288664      -0.11661896
H       -1.25075746      -2.39883494      -0.15735403
