21
Properties=species:S:1:pos:R:3 pbc="F F F"
H        0.00000000       0.00000000       0.00000000
H       -0.73394406      -0.63587439       0.07106813
H       -0.26298407      -0.51786631      -0.77292931
H        0.30808124      -0.84879911       0.36426225
H        0.85908508      -0.66402817      -0.41696468
H       -1.02944064      -1.18811226      -0.64393830
H       -0.41693980      -1.87360644      -0.32300022
H        0.03924721      -1.34765482      -1.07705081
H        0.19333285      -0.19475858      -0.98894662
H        0.63239640      -1.71350694      -0.32362521
H        0.92528313      -1.11804128      -0.61278594
H       -0.89483702      -1.33959305       0.30842525
H        0.46939296      -1.13031614       0.43885708
H       -0.31429541      -0.67851043       0.72556090
H       -0.25319561      -1.04355764      -1.15691483
H       -0.05080894      -1.62107027       0.42287424
H        0.31831330      -0.42578745      -0.63943511
H       -0.64135939      -0.97339320      -0.97086048
H       -1.76203239      -2.08131957       1.19875622
H       -2.38516879      -2.75156546       0.73421854
H       -2.69160438      -1.77224636       0.75306582
