21
Properties=species:S:1:pos:R:3 pbc="F F F"
H        0.00000000       0.00000000       0.00000000
H       -0.02481474      -0.91159266      -0.47085762
H        0.74113613      -0.46966103       0.42213345
H       -0.55809605      -0.69375420       0.31413811
H        0.42938936      -1.65900111       0.06617415
H        0.01673132      -0.00611293       0.98220903
H        0.41141886      -0.83551311       1.32255697
H       -0.56902468      -1.42938757       0.12758160
H        0.79900974      -1.49128830       0.50120449
H       -0.40383834      -1.10311615       1.18401647
H        0.43787467      -1.02258444      -0.45332956
H        0.15112346      -1.73019314       0.89230376
H        0.16418111      -1.34799564       1.15296948
H       -0.77882951      -0.87316626       0.96419603
H        0.08423799      -0.83551311      -0.27640855
H       -0.73189777       0.01443990       0.06488341
H        0.19978207      -0.59882981       0.25552398
H       -0.12792492      -0.73922080       0.18846850
H       -1.75891948       0.54930311       0.31287962
H       -1.75891948       0.54930311       0.31287962
H       -1.75891948       0.54930311       0.31287962
