21
Properties=species:S:1:pos:R:3 pbc="F F F"
H        0.00000000       0.00000000       0.00000000
H        0.21426670       0.05341591       1.00227761
H       -0.78414732       0.28302944       1.06368506
H       -0.13680305       0.96007282       0.94951236
H       -0.54833913      -0.60990006       0.52479243
H        0.72273332       0.52858323       0.59126949
H       -0.16446505       0.72366184       0.32356077
H        0.19506788      -0.72790813       1.14243388
H        0.46410871       0.19052249       1.32177460
H       -0.49473035       0.04545254       1.71553588
H        0.94368392       0.16213244       0.91937304
H        0.36166757      -0.72152936       0.61290872
H       -0.96675277      -0.18416101       2.59746361
H       -0.47033551      -0.05977411       1.70784473
H       -0.89051402       0.13191408       0.23020262
H       -0.61618727      -0.50318670       1.97533226
H       -0.59792519      -0.62526774       2.01592183
H       -0.56954497      -0.70735532       2.04647970
H       -1.17003262      -0.57139528       3.40805888
H       -1.17003262      -0.57139528       3.40805888
H       -1.17003262      -0.57139528       3.40805888
