21
Properties=species:S:1:pos:R:3 pbc="F F F"
H        0.00000000       0.00000000       0.00000000
H        0.15607943       0.96046287      -0.03480161
H        0.05117378       0.05067664      -0.97101706
H       -0.77376902       0.67731625       0.02238870
H        0.84081906       0.26851514      -0.44464493
H       -0.99317402       0.59292305      -0.92249233
H        0.50846517       1.33891702      -0.85982138
H       -0.48902690       1.35672951      -0.61895573
H       -0.26678723       1.00228500      -1.42533016
H        0.60176665       0.50135505      -1.44557619
H       -0.63972390       0.57081980      -1.05017865
H       -0.83196867       0.60360008      -0.69090569
H        0.93305022       1.59514987      -0.92363584
H       -0.57623792      -0.30956718      -0.57120323
H       -0.44813561       1.57184958       0.08883307
H        0.07813355      -0.58961421      -0.63277590
H        0.50202584      -0.28770617      -1.23784161
H        0.87089789       0.92349207      -0.37239265
H        0.40553719       0.42844400      -1.14160693
H        0.13231698       1.70227695      -0.48569208
H        0.02472362       1.08704269      -0.46912801
