21
Properties=species:S:1:pos:R:3 pbc="F F F"
H        0.00000000       0.00000000       0.00000000
H       -0.27385142       0.28314662      -0.89044607
H       -0.33221543      -0.59670103      -0.47750220
H       -0.13305959      -0.96046287       0.08869660
H       -0.53622103      -1.17830133      -0.77041233
H        0.68002748      -1.40023935      -0.21715796
H       -0.44770426      -0.38369119      -1.32612848
H        0.37544343      -0.48180872      -0.10864698
H        1.10193121      -0.69115943      -0.73413360
H        0.83130777       0.11800810      -0.49301353
H        0.47723591      -0.63433480      -1.49853575
H        0.40964055       0.28409582      -1.18234444
H        0.39003605      -1.39613986      -0.97694331
H        0.74667358       0.37210160      -0.82767850
H       -0.10838997      -1.76609147      -0.76293635
H       -0.79666090      -1.08059728      -0.69629079
H        0.76403284       0.10743546      -0.62110841
H       -0.57899868      -0.93917155      -1.93876004
H        0.37655604      -0.92044562      -1.43806863
H        0.67514479       0.01820791      -1.54738438
H        0.19785887       0.07010032      -1.29655719
