21
Properties=species:S:1:pos:R:3 pbc="F F F"
H        0.00000000       0.00000000       0.00000000
H        0.63883960       0.60990006      -0.40983751
H        0.60459763      -0.41450709      -0.46219596
H        0.01108708       0.96543115      -0.12601838
H        0.34479481       0.83951360      -1.36594379
H       -0.79756612      -0.08439321      -0.55211145
H       -0.23139703      -0.73181123      -0.59913999
H       -0.53084838      -0.13780913      -1.54172373
H        0.88212836      -0.01812881      -1.19551456
H        0.00392124      -0.01812881      -1.81491899
H       -0.53566617       0.66926748      -1.11020184
H       -0.60494339       0.84104425      -0.93741119
H       -0.31229356      -0.81273896      -1.34944749
H        0.47607306       1.48137641       1.14380980
H       -0.99614358      -0.19802439      -0.89359772
H        0.47607306       1.53205299       2.11617422
H        1.40665448       1.86440516       1.83889413
H        0.44380260       0.50205725       1.44912362
H        1.23692203       1.26353788       0.57660949
H        1.24577856       0.73167080       0.85126394
H        1.99972939       1.52772975       1.21036935
