21
Properties=species:S:1:pos:R:3 pbc="F F F"
H        0.00000000       0.00000000       0.00000000
H       -0.06381270       0.34709048       0.90747839
H        0.70756614      -0.04014379       0.58597839
H        0.97917962       0.64535040      -0.04993409
H        0.78828782       0.88895392       0.86583972
H        0.26930827       0.76335847      -0.70584381
H       -0.31752819       1.43919361      -0.10335135
H       -0.62396371       0.45987445      -0.08450405
H       -0.59438980       1.04569530       0.75767356
H        0.18292853       1.28573585       0.98573875
H        0.54096228       1.51701915      -0.15243572
H        0.62258393       1.72068501       0.38748142
H       -0.29435313       1.67274761       0.31491214
H        0.53199005       0.16185570      -0.05967784
H       -0.45602041       0.30839366       0.86254901
H        0.15091825       0.57788253      -0.66216570
H       -0.25575215       0.87022799       0.59425724
H        0.20079064       0.70912027      -0.06105137
H       -1.01914120       1.23323512       0.72054398
H       -0.47103256      -0.00329733      -0.52598959
H       -0.43242362      -0.01923361      -0.49266252
