21
Properties=species:S:1:pos:R:3 pbc="F F F"
H        0.00000000       0.00000000       0.00000000
H       -0.01035373      -0.77460212      -0.58986890
H       -0.44793779      -0.21882331      -1.25896609
H       -0.65481234      -0.11351949      -0.28050849
H        0.29457879      -0.49145550      -1.47015584
H        0.67033863      -0.49897972      -0.49972630
H       -0.15837537       0.92740691      -0.41007015
H        0.66577876       0.49917299      -0.39484525
H       -0.41171220       0.71982199      -1.00265837
H        0.43031520       0.91050792      -1.18545306
H        0.86284310       0.28314662      -1.31163692
H       -0.62061399       0.68087953      -0.92941868
H        0.65283787      -0.13670141      -1.13210845
H       -1.19421208       0.20381904      -0.48341155
H       -0.90887499       0.60686719      -0.45608419
H       -0.86905873       0.67594719      -0.43610391
H       -0.78971881      -0.44354475      -2.37028980
H       -0.78971881      -0.44354475      -2.37028980
H       -0.78971881      -0.44354475      -2.37028980
H       -0.78971881      -0.44354475      -2.37028980
H       -0.78971881      -0.44354475      -2.37028980
