21
Properties=species:S:1:pos:R:3 pbc="F F F"
H        0.00000000       0.00000000       0.00000000
H        0.45934626      -0.55622131       0.73002923
H        0.59788704       0.39891118      -0.73261511
H        0.96010649       0.24743038       0.15840191
H        0.35864085      -0.86484438      -0.26736081
H        0.16364357      -0.46966103      -0.83707833
H        0.71209800      -1.24426317      -0.61970711
H        1.06772816      -1.13941216       0.24236041
H        1.37967706      -0.24091280       0.68962187
H        0.79438901       0.41185415       0.66757786
H        1.67243886      -0.22321844      -0.00042947
H        0.98918372      -0.41253215      -1.04339087
H        0.87603617       0.69500077      -0.26044297
H        0.95797491       0.24032965      -0.57313216
H        1.74053848      -0.61171496      -0.22338942
H        1.27975678      -0.21280378      -1.04914606
H        1.66113484      -0.56831598      -0.83131737
H        1.35870874      -0.82619905      -0.88920557
H        1.17597413      -2.44729376       0.85277307
H        1.66672981      -3.19470215       1.35662162
H        1.79880691      -3.06200838       0.31655556
