21
Properties=species:S:1:pos:R:3 pbc="F F F"
H        0.00000000       0.00000000       0.00000000
H       -0.56912082      -0.52595156       0.67290437
H       -1.00576663       0.19475858       0.06185966
H        0.31735504       0.58582085       0.78065580
H        0.19757521      -0.41243345       0.98672611
H       -0.36351937       0.92656982       0.05622354
H       -0.03697222       0.33517727       1.65225828
H       -1.28344846       0.05723923       0.98545098
H       -1.19203019       0.90967083       0.56744266
H       -0.92708981       0.72489989       1.48598886
H       -0.53679127      -0.21064305       1.59355426
H       -0.36351937       1.20971644       0.98782903
H       -0.42111135       1.02743113       1.18155694
H       -1.12026954      -0.05889447       0.14831969
H       -0.87786043      -1.26468074       2.52497888
H       -0.60180378      -2.05907965       1.93672156
H       -1.22607231      -1.38268888       1.62337840
H       -1.10183239      -2.04126716       1.04063129
H       -1.17524529      -2.67379427       2.52546167
H       -1.82762790      -1.34445047       1.24309409
H       -1.67351675      -1.72822881       2.97816563
