21
Properties=species:S:1:pos:R:3 pbc="F F F"
H        0.00000000       0.00000000       0.00000000
H        0.68725604      -0.43977645       0.53135377
H        0.66516721       0.52565467       0.65591556
H        1.15709829       0.05920327       1.22296667
H       -0.11119455       0.71042562       1.21375346
H        0.59172440       0.12723482       1.55117655
H       -0.20796552       0.02493143       1.89843869
H       -0.20282942      -0.90332454       0.74628377
H        0.31734630      -0.80186290       1.64892638
H       -0.87777680      -0.27797616       0.78779638
H       -0.78287876      -0.25064358       0.52186161
H       -0.50449669      -0.76946759       1.32023168
H       -1.12107396      -0.30483678       0.22939453
H       -1.13818705      -0.26493871       0.19155146
H       -0.95580363       0.18447405       0.96209025
H       -0.78725398       0.03909005       1.32421160
H       -1.13089669      -0.34436747       0.06955578
H        0.68243897      -0.02055283      -0.96757895
H        0.68243897      -0.02055283      -0.96757895
H        0.68243897      -0.02055283      -0.96757895
H        0.68243897      -0.02055283      -0.96757895
