21
Properties=species:S:1:pos:R:3 pbc="F F F"
H        0.00000000       0.00000000       0.00000000
H        0.54069358       0.79439902       0.36042264
H       -0.29163516       1.02401257       0.91524720
H       -0.33884916       1.40246677       0.01936537
H        0.47533068      -0.02207339       0.97882736
H        0.64777470       0.67001212       1.37352943
H       -0.97490501       0.69338685       0.22110686
H       -0.82228959       0.84668797      -0.61738902
H        0.23294246       0.85603279      -0.78143764
H       -0.76298285       0.11241990       0.92765886
H       -0.33621985      -0.47077090       0.27510792
H        0.35020101      -0.51870823       0.88737124
H        0.01013875       0.13912916      -0.40025759
H       -1.32395983       0.16583581       0.06988525
H       -0.02266246      -0.07739639       1.58617580
H        0.38285306       0.95743084      -0.16836855
H        0.07058769       0.17853487       0.96320426
H        0.83335137       0.77265251       0.20846260
H        0.36727914       1.04446959       0.49006560
H       -0.67610002       0.27449998      -0.47846761
H        0.44398293       1.33175898       0.23773853
