21
Properties=species:S:1:pos:R:3 pbc="F F F"
H        0.00000000       0.00000000       0.00000000
H       -0.32983679       0.96807545      -0.08579928
H        0.16570388       0.21783850       0.93442470
H       -0.68454617      -0.16061571       0.64822853
H       -0.94440228       0.21441478      -0.13443793
H       -0.79331678       0.50963020       1.41781497
H       -1.22111106       1.07925916       0.21704085
H       -0.43895391       1.55126619       0.68623888
H        0.06296896       1.18326962       1.00824261
H       -0.78381950       0.99849868       1.45194268
H       -0.02225054       1.13259304       0.03961962
H       -0.96580797       1.39456773       1.10217464
H       -1.12644649       0.49215496       0.89213288
H        0.53285223       0.55166692       0.50997055
H       -0.44039500       0.81934130       1.27964401
H       -0.20744073       0.68881148      -0.33479476
H        0.01330829       0.76166558      -0.08289295
H       -0.08093099       0.11519811       2.08811021
H       -0.16932905       0.30503681       1.07628405
H       -0.19550169       0.76550210       0.09952886
H       -1.29486012      -0.93198419       0.94119847
