21
Properties=species:S:1:pos:R:3 pbc="F F F"
H        0.00000000       0.00000000       0.00000000
H       -0.12270200      -0.91159266      -0.45526573
H       -1.02138400       0.01781246       0.09890106
H        0.04422215      -0.72682166       0.48604026
H       -0.57055080      -0.36064175       0.87451875
H       -1.40303135      -0.83030277       0.68889731
H       -0.67006063      -1.37825823       0.96327806
H       -1.05355275      -1.06307340      -0.69740468
H       -0.54280776      -0.26419187      -0.82999170
H       -1.62810850      -0.97411841       0.14834744
H       -1.01678109      -1.68319833       0.41582739
H       -0.19835681      -1.63252175      -0.10921979
H       -1.17489338      -1.47285283       0.16318798
H       -0.94301897      -1.30446196       0.34836835
H       -0.48982766       0.25962055       0.63501501
H       -0.24625739      -0.76806933       0.71370351
H       -0.76439357      -1.15887189      -0.37858140
H       -2.33529162      -0.44681948       1.31033564
H       -2.33529162      -0.44681948       1.31033564
H       -2.22465348      -1.19422793       0.61573958
H       -1.85618496      -1.22142160       1.65458751
