21
Properties=species:S:1:pos:R:3 pbc="F F F"
H        0.00000000       0.00000000       0.00000000
H        0.88791460       0.34709048      -0.19798161
H        0.70960557      -0.12257054       0.63609588
H        1.36169899       0.64879799       0.81799912
H       -0.03105181       0.71294260      -0.47180063
H        0.55281353       0.55984300       1.44339120
H        0.92292380       1.31632674      -0.11186303
H        1.24347901       1.04390717       0.46635592
H        0.88937372       1.50109768       0.84354001
H       -0.14702237       0.14527082       0.84294689
H       -0.60189122       0.59493452       0.30812079
H       -0.24776095       1.31444538       0.19119966
H       -0.10970408       1.28239083       1.13955104
H        0.58087039       1.40975928      -0.03211710
H       -0.28512883       0.91024303       1.17316592
H        0.85080492       0.82891381       1.39202547
H        1.11165345       0.39502785       0.69419599
H        1.06912780       0.97788131      -0.12285024
H        0.64841169       0.98958737      -0.05131738
H        0.52268022       0.54062057       0.46707708
H        0.97495365       0.44926000       0.30626190
