21
Properties=species:S:1:pos:R:3 pbc="F F F"
H        0.00000000       0.00000000       0.00000000
H       -0.67230010      -0.60990006       0.35227177
H       -0.77767581       0.39602298       0.17809181
H        0.30898595      -0.73428696       0.62600422
H       -1.15698338      -0.05367875       1.06573081
H       -0.51834172      -0.85867387       1.22046256
H        0.37433392      -0.45114034       1.55531502
H       -0.70223385       0.79512036       1.20996642
H        0.65867960      -0.01136389       0.73445868
H        0.34911919       0.52073318       1.50158417
H       -0.51034039       0.06238866       1.73400748
H        0.10431850       0.85957110       0.42412657
H        0.02128500       0.91950727       0.49276894
H       -0.02045238       1.43691421       0.48496372
H       -0.02045238       1.43691421       0.48496372
H       -0.14242184       1.08592582       0.69270915
H       -0.16749531      -0.27840018       1.67627811
H       -1.23994100       0.49028617       0.39388609
H       -0.14933503      -0.07423159       1.68748367
H       -0.15054905      -0.11531249       1.68673456
H        0.64247912       0.73040640      -0.18850869
