21
Properties=species:S:1:pos:R:3 pbc="F F F"
H        0.00000000       0.00000000       0.00000000
H        0.02715597      -1.02162731       0.09414954
H        0.49159861      -0.46966103      -0.69700080
H       -0.86046988      -0.59013772       0.37568292
H        0.27605107       0.47740087      -0.62863433
H       -0.87260544      -1.27563190      -0.31570068
H       -0.89431578       0.34709048      -0.16669874
H       -0.98677063      -0.99248528      -1.24028444
H       -1.43530536      -0.48102176      -0.32063863
H        0.15340164      -0.10578993      -1.39863849
H       -0.97911835       0.04492980      -1.07468915
H       -0.12487660      -1.13963544      -0.86032474
H       -0.52440715       0.49429986      -1.18274796
H       -0.62492490      -0.39949092      -1.55570257
H        0.07450169      -1.01420546      -1.12413287
H        0.07115149      -0.10281789       0.13334346
H       -1.00589001      -0.74886310      -1.09018481
H       -1.67426157       0.42236009       0.20769976
H       -0.02036113       0.25706893      -0.58678526
H       -2.69618416       0.89106190       1.11921930
H       -3.53812194       0.66144836       0.57908756
