21
Properties=species:S:1:pos:R:3 pbc="F F F"
H        0.00000000       0.00000000       0.00000000
H        0.41703188       0.87984765      -0.00365971
H        0.93162382       0.05341591      -0.42725608
H       -0.29364634       0.37845421      -0.84770584
H        1.07194495       1.01387882      -0.50394988
H        0.60367209       1.03169131      -1.41703653
H        0.23741180       1.51285851      -0.45262194
H        0.80632555      -0.03553909      -1.44200301
H       -0.34080032       0.96807545      -0.00299068
H        0.45228153       0.56322515      -1.44562912
H        0.25268811      -0.33235219      -0.93755782
H        0.42182201       1.23171735      -1.19528723
H        0.04071552       1.25830185      -1.09696698
H        1.39583635       0.82677656      -1.19457233
H       -0.41803426       1.23591685      -0.88084817
H        0.97297341       1.05808973      -0.03604263
H       -0.21314089       0.10568100      -0.80444765
H        1.77994299       0.18852040      -0.55475706
H        1.24585652      -0.37861082      -0.17100081
H        1.06278181      -0.39730045      -0.11224437
H        0.22634010       0.32906228       1.05875349
