21
Properties=species:S:1:pos:R:3 pbc="F F F"
H        0.00000000       0.00000000       0.00000000
H       -0.37664786      -0.36585209      -0.88182342
H       -0.34763053       0.52769721      -0.74077630
H       -1.26455939       0.21238869      -0.65198970
H       -0.57429928       0.05067664       0.78464848
H       -0.21697149       0.96226931       0.47701311
H       -0.88713437       1.06118774      -0.36018258
H       -1.46267426      -0.44869393       0.03487366
H       -1.48034036      -0.13409433       0.47967285
H       -1.14109206       0.93119055       0.52470911
H       -1.68643880       0.37496924      -0.14352638
H       -0.62463892      -0.58961421       0.12781382
H       -1.29582477      -0.34986654      -0.82528949
H       -0.15857767       0.70248055       0.14355826
H       -1.70426476       0.81151140      -0.10011888
H       -1.56298506       0.71138334       0.12375835
H       -1.32803392       0.38821688       1.05317366
H       -1.23106623       0.81035388      -0.04898417
H       -1.27399993       0.86396182       0.02788448
H       -0.86484987       0.87747037       0.49588016
H       -0.83112788       0.85549307       0.51960278
