21
Properties=species:S:1:pos:R:3 pbc="F F F"
H        0.00000000       0.00000000       0.00000000
H        0.52815789      -0.26419187       0.83939010
H        0.62455708       0.70907992      -0.23493627
H       -0.05389881       0.75975657       0.46161994
H        0.88250566      -0.20606343      -0.16449752
H        0.63996226       0.54946893       1.36237848
H        1.45542026       0.17101473       0.98839772
H        1.41172349       1.04844868       1.04071903
H        1.78731525       0.48632324       0.12904495
H        0.40048176       1.40711141       0.85206234
H        0.98917234       1.39021242       0.07667947
H        1.40989470       0.60759735      -0.07574055
H        1.60881031       0.72679353       0.20376897
H        0.27125388       0.36084539       1.34957802
H        1.18349171       0.34781659       0.35332170
H        0.15302268       0.29128850       1.08268464
H       -0.27017248       1.42127001       0.38780501
H        0.54008901      -0.49917299       0.55449802
H        0.25805920       0.64990151      -0.03561667
H        1.57742167       0.95428497       1.61519337
H        0.58069873       0.82956421       0.86951280
