21
Properties=species:S:1:pos:R:3 pbc="F F F"
H        0.00000000       0.00000000       0.00000000
H       -0.30820453      -0.91843063       0.09775501
H        0.42827135      -0.79439902      -0.48871019
H       -0.13233507      -0.39891118       0.93631262
H        0.83427751       0.05440009      -0.23819074
H        0.64018929      -1.58900917       0.03258279
H        0.23363119       0.38675228       0.52475750
H        1.28336477      -0.74646169      -0.14980745
H        0.75500506      -0.71421969       1.18383861
H        0.23943529      -1.35457647       0.89371604
H        1.22512698      -1.19009805       0.77557790
H        1.48340166      -0.45002782       0.51081192
H        0.52022350      -1.50425148      -0.05666252
H        1.07073069      -0.27524447      -0.29385650
H        0.95397919       0.06966901       0.31011951
H        0.26414999       0.05914098       0.43328631
H        0.89639866      -0.81309134       1.98117459
H        0.42851681      -1.48964000      -0.63252968
H        0.36649466      -0.06654453       0.42241639
H        0.42851681      -1.48964000      -0.63252968
H        0.40243429      -1.48964000      -0.65793443
