21
Properties=species:S:1:pos:R:3 pbc="F F F"
H        0.00000000       0.00000000       0.00000000
H        0.49089283       0.77460212       0.32722577
H       -0.44994217       1.02524567       0.31896952
H        0.17328727       1.42415690      -0.39221177
H        0.61372936       0.43148959      -0.70034057
H       -0.08532231      -0.01689900      -0.96979147
H       -0.98116696       0.15966894      -0.25522754
H        0.13688278       0.74679810      -1.48854041
H       -0.80184895       0.70564890      -1.10335064
H       -0.87802553       1.22000420      -0.59324622
H       -0.10858554       1.05830479      -1.30873990
H       -0.92108971       0.13458179      -0.49375853
H       -0.52404773       0.16079175       0.28178248
H        0.59330463       1.16183639      -0.50217116
H       -0.06963965       0.26820868       0.12812915
H        0.08806971       0.74820971      -1.36081266
H       -0.01003903       0.90612411      -0.44374913
H       -0.15915686       0.44490853      -0.67536998
H       -0.05126411       0.38629508      -0.74735308
H        0.20748255       0.77277207      -0.57408762
H       -0.05017996      -0.12806022      -1.48054719
