21
Properties=species:S:1:pos:R:3 pbc="F F F"
H        0.00000000       0.00000000       0.00000000
H       -0.21671417       0.94706190      -0.06457304
H       -0.84270966       0.05341591      -0.58336192
H        0.73010325       0.74231571      -0.53969735
H       -0.10461992       1.00650764      -1.07520068
H        0.13567552      -0.55622131      -0.85178280
H       -1.00782239      -0.34549528       0.34772968
H       -0.84678066       1.13183284      -0.78355628
H       -0.80093074      -0.50554466      -0.59051371
H       -0.32200080       0.97216392      -1.65098679
H       -0.16014230      -0.22110838       0.91278738
H       -0.64704752      -1.03149629       0.27725291
H       -0.06742901      -0.41624510      -0.93891674
H        0.64631867       0.55754471      -1.49201071
H       -0.63668787       0.50648445      -0.14079791
H       -0.81789052       0.07748383      -1.56753087
H       -0.49566573      -0.14723760      -0.45038009
H       -0.44067344      -1.76866603       0.55921578
H        0.11175498      -1.03685474       0.23159382
H       -0.41809633      -0.14723760      -0.47573459
H       -0.45345011      -0.16369346      -1.32459736
