21
Properties=species:S:1:pos:R:3 pbc="F F F"
H        0.00000000       0.00000000       0.00000000
H        0.97460508       0.08895500       0.30912116
H        0.40015939       0.12438690      -0.93686938
H        0.38938835       0.83173102       0.32351381
H        0.99798453      -0.54585904      -0.44018096
H       -0.26001796       0.87668937      -0.46597242
H       -0.60924530      -0.13510449      -0.60392219
H       -0.36801100      -0.39929634       0.35801989
H        0.42952102       0.98544711      -1.04581094
H        0.04722950       1.84476483      -0.31848407
H        0.37711817      -0.24740723      -1.20095372
H       -0.47384474       0.43243468       0.85307908
H       -0.56808031      -0.29808387      -0.97271550
H        1.24831057       1.16005981       0.37634194
H        0.23602952       1.11295366      -0.93237972
H        0.29095954       1.00857902       0.46904266
H        0.19752783       0.89297432      -0.08082533
H        0.21977413       0.86231565      -0.17512858
H        1.79301071      -0.58699220      -0.21591410
H        1.79301071      -0.58699220      -0.21591410
H        1.79301071      -0.58699220      -0.21591410
