21
Properties=species:S:1:pos:R:3 pbc="F F F"
H        0.00000000       0.00000000       0.00000000
H        0.42017129      -0.49897972       0.72286665
H       -0.15699835      -0.52769721      -0.80308664
H       -0.09305684      -1.39648294      -0.50398672
H        1.16195226      -1.02493131       0.24698871
H       -0.16495067      -1.44989884       0.51841342
H        0.84801829      -1.69493473      -0.78439355
H        1.78576040      -0.46915251      -0.25304550
H        0.66921902       0.68549418      -0.17408167
H        1.31887412       0.80350226       0.54151821
H        1.31599569      -1.95912659       0.08997691
H       -0.74477673      -0.74081892       0.84866834
H        0.68980008      -2.24227333       0.77973622
H        0.80053365      -1.39648294       0.86237669
H       -1.07696080      -0.68192446      -0.23145032
H        2.74050808       0.17821807       0.43296790
H        1.85288215       0.60970765       0.71450126
H       -1.13930595       0.15563750       0.35840291
H        0.77893889       0.30452254       1.17991471
H        0.77927268      -0.77328688      -1.34114003
H        0.10643762      -0.09491378       1.22110832
