21
Properties=species:S:1:pos:R:3 pbc="F F F"
H        0.00000000       0.00000000       0.00000000
H       -0.96783787       0.05067664       0.09371616
H        0.16611859      -0.95433736      -0.09851791
H       -0.69729662      -1.48028898       0.07815439
H        0.24953420       0.36585209      -0.92585570
H       -1.04276562      -1.84614110      -0.81634396
H       -1.85194683      -1.34716141      -1.02683342
H       -0.33234960      -1.61652756      -1.52055311
H       -1.28612626       0.46003860      -0.73040533
H       -0.53544384      -0.75888515      -2.04641056
H        0.07249403      -0.00522447      -1.94409764
H       -0.56173563       0.63064992      -2.32023239
H       -1.67051876      -0.94825023      -1.95488381
H       -1.94503820      -0.15467596      -1.22161305
H       -1.58982766      -0.32945931      -2.05324650
H       -1.34430993       0.13167021      -2.61460900
H       -1.48002923      -0.54104662      -1.95494592
H       -1.52282417      -0.81575859      -0.64475429
H       -1.34841037      -0.71045476      -0.68944198
H       -1.24357271      -0.81810904       0.22607757
H       -0.55922461      -0.32569855      -0.86589855
