21
Properties=species:S:1:pos:R:3 pbc="F F F"
H        0.00000000       0.00000000       0.00000000
H       -0.19310522      -0.77460212      -0.55746114
H       -0.51846963      -0.01689900       0.82399309
H       -0.30191678      -1.63944650      -0.12356591
H        0.89518517      -0.01598554       0.21616164
H        0.92930973       0.03469110       1.18792725
H       -1.34914494      -0.51587874       0.72881603
H        0.08406433      -1.58603060       0.82590193
H        1.27500546      -0.82964635      -0.16034019
H        0.91088784      -1.08705091       0.70163167
H        1.35726213      -0.85998899       1.45198822
H        0.58538961      -1.16199851      -0.84393066
H       -1.36693740      -0.67554766      -0.28484714
H       -0.01299435       0.18617189       1.38074183
H       -0.68562216      -0.18049958      -0.87141407
H       -0.99827808      -1.41055882       1.08904362
H        0.21566421      -2.45310736      -0.25820246
H       -0.15754658      -1.85033524       0.87034702
H       -0.56055379       0.62241840      -0.43780318
H        0.21112096       1.20716393       0.03834605
H        0.50351465      -3.00603080       0.62244797
