21
Properties=species:S:1:pos:R:3 pbc="F F F"
H        0.00000000       0.00000000       0.00000000
H       -0.07115869       0.77136850       0.67323917
H        0.65862775       1.35455930       0.39871934
H        0.53462839       2.19212127       0.97875202
H        0.68100828       0.36585209      -0.67505842
H        1.00178862       1.24569976      -0.40854588
H        1.02622700       2.66178226       0.28175122
H       -0.48314118       2.31650805       0.93406653
H       -0.85864949       2.50127912       0.05491120
H       -0.89804155       1.18073046       0.36219513
H        0.34241730       3.34727645       0.17897567
H        0.64662522       1.96824765      -1.04502630
H       -0.16074836       2.51726460      -0.54593509
H        0.38574672       2.53507710       0.32259798
H       -1.07258189       1.52782094      -0.53062332
H       -0.65322900       3.47804213       0.57358444
H       -0.40738100       1.19546878      -1.23799431
H       -0.90232921       2.51970100       1.00213873
H       -0.94034469      -0.12438690      -0.39192289
H       -1.24991274       2.46646619      -0.71919608
H        0.21232757       0.51733291      -1.51497078
