21
Properties=species:S:1:pos:R:3 pbc="F F F"
H        0.00000000       0.00000000       0.00000000
H        0.54069358       0.79439902       0.36042264
H       -0.05896294       1.56576753       0.67463058
H        0.14282526       2.31942821       0.09210330
H        1.07216263       1.12675118      -0.45223138
H       -0.98961765       1.26731575       0.36136997
H        0.89580286       0.54356039      -1.21173561
H        0.82712728       2.04518175      -0.66319048
H        0.28102002      -0.18477097      -0.91375506
H       -0.73492628       2.54904175      -0.38764009
H       -0.65063035       2.39756107      -1.34576774
H       -0.90512890       1.53991270      -1.56487405
H       -1.51578116       1.14100146      -0.84286463
H       -1.73795700       1.91560364      -0.29633886
H        0.44792497       1.07125759      -1.89657283
H       -1.32085931       1.85050654      -0.34448296
H       -0.93070894       0.28314662      -0.04086305
H       -0.50981104      -0.03329018      -1.46120429
H        0.45742312       2.06299424      -1.62043941
H       -0.46306050       0.75594908      -2.03349257
H       -1.28145397       0.30004561      -0.94902235
