21
Properties=species:S:1:pos:R:3 pbc="F F F"
H        0.00000000       0.00000000       0.00000000
H        0.13252793       0.60990006       0.74734145
H       -0.52155960       0.55622131      -0.68696243
H       -0.26602203       0.25776950      -1.63509262
H        0.44378388      -0.43904725      -1.38221729
H        0.90638846      -0.29845181      -0.37777019
H        0.21918583       1.07424188      -2.02402711
H        1.15212035       0.85640335      -2.19792461
H       -0.28091574       1.49486661      -0.59158707
H        1.37704873      -0.08224195      -2.06981087
H        1.29403400      -0.06059304      -1.66841340
H        0.34925956       1.61925352       0.20886958
H        1.10036576       0.55922341       0.84105754
H        1.67842007       0.28736904      -0.03997579
H        0.02277115      -1.08528566      -2.13670492
H       -0.30016303       1.24209893      -2.95474076
H        0.99567306      -0.17406490      -1.39260030
H       -0.94974864       0.44769990      -2.93763566
H       -0.79065430      -0.81744432      -2.47572970
H        0.22170633       1.82721877      -1.42239213
H        1.21771932       1.86989713      -0.15309241
