21
Properties=species:S:1:pos:R:3 pbc="F F F"
H        0.00000000       0.00000000       0.00000000
H       -0.27385142       0.28314662      -0.89044607
H       -0.86669266      -0.44866461      -1.13753426
H       -0.08077858      -0.96923625       0.04600953
H       -0.12799260      -1.34769046      -0.84987229
H       -0.91417366      -1.21987987       0.48269176
H        0.11241527      -0.63861054      -1.47234368
H       -1.47631097      -1.68954086      -0.15877604
H        0.79329580      -0.11091334      -1.01847339
H       -0.59382695       0.40936196       0.65410495
H        1.43640590      -0.60989308      -0.48416108
H        1.37105799      -0.32674646       0.44514972
H       -1.37286735      -0.97636181      -0.49458504
H       -1.08684886      -1.71354258      -0.85828668
H       -1.21806145       1.05222952       0.15372866
H        1.21510732      -1.12135661       0.98582983
H        0.59744132       0.34349948       0.52005935
H       -0.78369641       1.14118457      -0.77187270
H       -1.59994936       0.92334604      -1.25595784
H        0.40797454      -1.03696334       1.52385902
H       -1.45352924       0.05850166      -1.67864716
