21
Properties=species:S:1:pos:R:3 pbc="F F F"
H        0.00000000       0.00000000       0.00000000
H        0.50421435      -0.31530851      -0.77097952
H        0.65354043      -1.37281752      -0.61766958
H        0.16716091       0.93864530       0.19764401
H        0.39279070      -1.62346113       0.28634822
H        0.47167993      -0.76581872       0.84451485
H        1.67776608      -1.39063001      -0.55467439
H        0.99161494      -2.25933552       0.71662045
H        1.41984665       0.14823958      -0.77901477
H        1.46835160       0.83373380      -0.08922797
H        2.11111999       0.51842529       0.57068884
H        1.65228009       0.46774864       1.42798615
H        0.36121911      -0.40936196       0.80622858
H        1.62063420      -0.47931325       1.65189075
H        2.19752359      -0.49462798      -0.59122801
H        2.58554578      -0.27678949       0.27482402
H        0.79216790      -0.86654752       1.76157677
H        1.90437555      -1.67377663       0.34894997
H        1.25972009      -1.67614472       1.44878781
H        0.58556420       0.72391146       1.22686648
H        0.57645100       0.81683481       0.30101383
