21
Properties=species:S:1:pos:R:3 pbc="F F F"
H        0.00000000       0.00000000       0.00000000
H       -0.56912082      -0.52595156       0.67290437
H       -0.56302071       0.61471456      -0.59871328
H        0.66342419       0.55622131       0.55118978
H        0.83700430       0.13685313       1.53002977
H       -1.45169866       0.53032136      -0.20988151
H        0.27125481       1.49832499       0.66058660
H       -1.48746657      -0.21064305       0.60022360
H        0.48950902       0.82234728       2.12786388
H       -0.01818934       1.48342991       1.62460136
H       -0.26884106      -0.40794346       1.59158111
H       -0.48287705       1.61633313       0.05608672
H       -1.73958302       0.13644743       1.47430968
H       -1.59991920       1.37912047       0.24358478
H        0.43318465       0.33946505       1.63475931
H       -0.93362719       0.01206053       2.09743643
H       -0.97414446       1.29865897       1.61621249
H       -0.78340381       1.99383497       0.15003030
H       -1.74979997       1.24835479       1.30403900
H       -1.05707932       0.39703488       2.20300293
H       -0.20063284       1.49456215      -0.39230579
