21
Properties=species:S:1:pos:R:3 pbc="F F F"
H        0.00000000       0.00000000       0.00000000
H        0.36925858       0.05341591      -0.95609558
H       -0.47004125      -0.91159266      -0.03720055
H       -0.77296597       0.58319080       0.10233795
H       -1.13190734      -0.96500856       0.74536186
H       -0.96138757      -0.08516091       1.12595618
H       -1.93236566      -0.98190755       0.19124824
H       -1.53381515       0.36535230      -0.46486217
H       -2.33776212      -0.10205990       0.28913981
H       -0.24223584       0.41381881       0.69945771
H       -0.69994271      -1.32095456      -0.89021236
H       -1.73572171      -1.03532350      -0.81463534
H       -2.26216960       0.45416141      -0.57006186
H        0.08612591       0.98251361      -0.88772720
H       -1.77705288       0.30207336       0.94408405
H       -0.38439178      -0.63546038      -1.50550592
H       -1.53783989       1.27703965       0.54867899
H       -0.88036072       0.19627064      -1.40402055
H       -1.32991886      -0.53051698      -0.40019119
H       -0.51574075       1.36599469       0.57559323
H       -2.03644013       1.31180978      -0.32141906
