21
Properties=species:S:1:pos:R:3 pbc="F F F"
H        0.00000000       0.00000000       0.00000000
H        0.80713278      -0.08439321       0.53802919
H        1.46078146      -0.64061451      -0.02471870
H       -0.57344145       0.61471456       0.58874005
H       -0.11460167       0.66539121       1.44603753
H        1.21438694       0.77324921       0.92779517
H        1.01111901       1.45874333       0.26685590
H        0.52468032      -0.06642002       1.50793946
H        0.25969583       0.40936196      -0.84441799
H        1.25533986       0.63897550      -0.74800938
H        1.18614554       0.43255970       2.01935291
H       -0.40934688       1.50850534       0.23906603
H        1.77002430       1.04842269       1.35307550
H        0.41613847       1.97205341       0.63532478
H        2.19779515      -0.35746789       0.54510546
H       -0.11530203       1.27889180      -0.71704018
H        0.63084763       1.88879180      -0.85612118
H        1.44520473       1.59331286      -0.78339988
H        0.71883333       1.12481356       2.40760779
H        0.12912126       1.55329895       1.46963727
H        0.63084763       2.44501305       0.00639939
