21
Properties=species:S:1:pos:R:3 pbc="F F F"
H        0.00000000       0.00000000       0.00000000
H       -0.61304885      -0.15966894      -0.80746567
H       -0.30993089       0.74740851       0.63138521
H       -0.14948982      -0.90707743      -1.33644342
H       -1.14880204       0.93217945       0.17289227
H        0.66905653      -1.05855823      -0.83137286
H       -1.51287580       0.18477094      -0.42890066
H       -1.82631481       0.59982729       0.86848009
H       -0.39188671       0.16421771       1.40677714
H       -0.84013414      -1.49026823      -0.97455966
H       -2.27878618      -0.23190373       0.64142466
H        0.52084237      -1.87221909      -0.31751525
H       -1.98233044      -0.60962808       0.02039477
H       -0.41406897      -2.13313580      -0.29742330
H        0.71923721      -1.65438056       0.61051857
H       -1.46679640      -1.40423822       0.24596134
H        0.82528675      -0.32674700      -0.20839179
H       -0.15636081      -1.84913909       1.10923815
H       -1.60361552      -1.11181402      -0.50346583
H       -1.20299518       0.40506870       1.66022849
H       -1.89944661      -0.96371496       1.15970528
