21
Properties=species:S:1:pos:R:3 pbc="F F F"
H        0.00000000       0.00000000       0.00000000
H       -0.72715116       0.63587439       0.12237607
H       -1.53474522       0.19609794       0.44245327
H        0.93530434       0.33235219       0.26090574
H       -1.38231647      -0.76436496       0.49079999
H       -0.44945902       1.27174878       0.80546588
H        0.39450878       0.95644027       1.17473531
H       -0.64221382      -0.95912355      -0.19304284
H       -1.13671970       1.36070383       1.56248879
H       -0.64058137       1.07755721       2.35099077
H        0.29788136       0.85971868       2.20994139
H        0.67950618       1.25078285       0.45867682
H        0.44318959      -0.12966412       2.44087672
H        0.64252841      -0.65561569       1.58241129
H       -1.13747561       0.15590936       2.61135340
H        0.60162401       0.01463026       0.80625337
H       -0.99761933      -1.01500857       1.34943080
H       -1.81923366       0.57496667       1.27802622
H       -0.46800554      -0.61545914       2.51073313
H        0.02077776      -0.89062166       1.37624753
H       -0.71713483      -1.30095339       1.86568034
