21
Properties=species:S:1:pos:R:3 pbc="F F F"
H        0.00000000       0.00000000       0.00000000
H       -0.90169489       0.25064358      -0.26867270
H        0.19018230       0.34709048       0.88961780
H       -1.43511999      -0.62604582      -0.25462639
H        0.01009603      -0.44730854       1.51397586
H       -0.98172230      -1.42044485       0.21086752
H       -0.07329822      -1.22568631       0.64693946
H       -0.03321806      -0.16138971       0.47433165
H        0.06566270       0.49325258       2.03969860
H        0.34542832      -1.30551767      -0.16953641
H        0.91386986      -0.46795571      -0.33891171
H       -1.47039449      -1.34061348       0.98750407
H       -0.80336255      -1.15584254       1.67233181
H       -1.59086943       0.60864079       0.22651863
H       -2.21114135      -0.64379674       0.84943026
H       -2.15502286      -0.00092918       1.64748788
H        1.73868358      -0.74569589       0.29879510
H       -0.13612546       1.24691319       1.45717132
H       -0.30688500       1.00981796       0.58369273
H       -2.07962012      -0.14481702       0.02372915
H       -1.94413495       0.97403711       1.23627710
