21
Properties=species:S:1:pos:R:3 pbc="F F F"
H        0.00000000       0.00000000       0.00000000
H        0.63848275      -0.52769721      -0.51179713
H       -0.55369717       0.46354809      -0.72929174
H        1.26440835      -0.95918679       0.17766476
H        0.87511778      -0.54982483       0.97071999
H       -0.13856071       0.11645761      -1.53876734
H        0.07295895       0.06488973       0.79185951
H        0.55605209      -0.51941681      -1.29130471
H       -0.00573236       1.32119048      -0.59697390
H        1.55881965       0.19758368       1.13581443
H        0.95022279       1.50596142      -0.60536301
H        1.36396790       0.59436876      -0.83149928
H        2.26180029       0.17977121       0.38826859
H        0.30972874       0.78720880      -1.98314011
H        0.64520776      -0.12817913      -0.71053541
H        1.18039775       1.09137440       1.21324730
H        1.60396576       1.61907160       0.51311392
H        1.37869358       1.55663800       0.26750904
H        0.46708405       0.89717799       0.77455533
H        0.37386084       1.31606483       0.01957303
H        1.99525452      -0.40497431      -0.47842246
