21
Properties=species:S:1:pos:R:3 pbc="F F F"
H        0.00000000       0.00000000       0.00000000
H       -0.29363519      -0.58319080       0.72230726
H        0.41541493       0.74740851       0.56756932
H       -0.82560289       0.25064358      -0.45124108
H        0.73574930       0.46426189       1.44236910
H       -1.60432076      -0.11520851       0.10828972
H       -0.87287676       1.19770551      -0.23010789
H       -2.23766017       0.60733938       0.46902454
H        0.05622697       0.87362385       2.00693369
H       -1.67878342       1.34099817       0.19217099
H       -1.26974428      -0.64290571       0.85505289
H       -0.11427510       1.56355762       0.35640693
H       -0.86533129       0.82294720       1.69673491
H       -0.46511292       1.84670424       1.21942592
H       -0.76729041       0.18007964       0.90273666
H       -1.30251098       0.05157870       2.21363783
H       -1.69914007      -0.70802295       1.55803275
H       -2.26175237      -0.05958253       1.22437108
H       -0.32561338       1.13762426       1.87196445
H       -1.51423633       1.75318742       0.98549879
H       -2.23992896       0.75688988       1.84583747
