21
Properties=species:S:1:pos:R:3 pbc="F F F"
H        0.00000000       0.00000000       0.00000000
H       -0.04850490       0.68549418       0.68978679
H       -0.77488208      -0.11800810      -0.57766145
H       -1.46763277       0.24784398       0.08534127
H       -1.33174396      -0.08450821       1.04679859
H        0.23779851      -0.96807545       0.24414274
H       -0.74198866      -0.85911036       1.06232822
H        0.43597764       0.33840370       1.45976448
H       -1.04479516       0.73891008       0.93036222
H        0.83914065      -0.55627638       1.15921319
H       -0.47359949      -1.69062328       0.08551957
H       -0.78207767      -2.06907749       0.92794138
H       -1.74480224      -2.08597660       0.78324538
H        0.49164537      -1.24177051       1.75704718
H       -0.52673829      -1.45436287       1.70912743
H       -1.14640975      -1.16292608      -0.38023025
H       -2.03843737      -1.50278580       1.50555265
H        0.59806925      -0.72413349       0.12102449
H        0.27708215      -0.53296775       2.61263609
H       -0.78865957      -1.09134853      -0.55576515
H       -0.37433133      -0.99625492       0.00096571
