21
Properties=species:S:1:pos:R:3 pbc="F F F"
H        0.00000000       0.00000000       0.00000000
H       -0.30729049       0.46966103      -0.79564559
H       -1.15517902       0.02988458      -0.98470259
H       -1.70158792      -0.02079206      -0.18038291
H       -0.89689851      -0.93819088      -1.20706487
H       -0.47830737      -0.81647241       0.39738995
H       -1.34738588      -0.86714906      -0.03872392
H       -1.20176256      -1.47704911      -0.78362441
H        1.07062256      -0.13076572       0.02819200
H        1.07062256      -1.11008489       0.33520654
H        0.32468814       0.10380894      -1.51681066
H        0.10166311      -1.59107447       0.28928447
H        1.22265518      -0.01275762      -0.92628229
H        1.51113904      -0.86155671      -1.30625343
H       -0.12823832      -2.00043631      -0.56372732
H       -0.34523273      -2.12328744      -0.67022282
H        1.18416214      -1.66300833      -0.58431053
H       -0.01567164      -0.71266347      -2.03724504
H        0.80358487      -1.18988550      -1.79605460
H       -1.13958120       0.47818765       0.43867171
H        0.50353551      -2.29888272      -0.86798644
