21
Properties=species:S:1:pos:R:3 pbc="F F F"
H        0.00000000       0.00000000       0.00000000
H       -0.47549847       0.19475858       0.88842231
H        0.72077233       0.72254789      -0.10833093
H       -0.64412612       0.12438690      -0.78927392
H        0.12854782       0.69373828       1.46652973
H        0.28606382       1.64995480      -0.17366695
H       -0.15923569       0.74024993      -1.53070593
H        1.26726747       0.70473546       0.76020217
H        1.05768788      -0.17511219       1.12076473
H       -0.68743622       1.66685379      -0.18220985
H       -0.50711215       1.69591522      -1.39283061
H        0.31652695       2.19096327      -1.03245592
H        0.84903860       0.65129495      -1.36101842
H       -0.36989379       1.48834848       1.72770309
H        0.57531893      -0.70106375       0.38318831
H       -1.26627529       0.89937615       0.68272030
H        0.98350120       1.40155220       1.45823300
H        1.24980259      -0.46396849      -0.19749701
H       -1.31717181       1.67901623      -0.85285044
H        0.93780625       0.94438183       0.98659277
H       -1.14041650       0.83730912      -0.48304600
