21
Properties=species:S:1:pos:R:3 pbc="F F F"
H        0.00000000       0.00000000       0.00000000
H        0.30968034       0.89379078      -0.23086154
H       -0.03578863       1.25964284      -1.12535989
H        0.57050586      -0.40936196       0.67454201
H        0.17635964      -0.58319080      -0.75950420
H        1.09236598      -0.46518269      -1.06783414
H        1.79061699      -0.34717458      -0.39956737
H        1.41622496      -0.81072271       0.43606269
H        0.90044177       0.47048569       0.92963278
H        1.14917183       1.32528043       0.17212060
H        1.71226358       1.75677001      -0.56954527
H        0.85664141       1.69113243      -1.39127219
H        0.45964342      -1.44083321      -0.27214009
H        1.89368117       0.31081676       1.13286972
H        1.61319876       1.40798581      -0.84766412
H        0.60446906       1.16730237       0.23668939
H        1.26672912      -1.80668533      -0.78991312
H        2.31467199       0.51046783      -0.19186641
H        2.24932408       0.79361445       0.73744440
H        1.62598383       1.67412829       0.75385839
H       -0.25312471       2.17807341      -0.88596249
