21
Properties=species:S:1:pos:R:3 pbc="F F F"
H        0.00000000       0.00000000       0.00000000
H        0.87747955       0.49504808      -0.19565487
H        1.30692255      -0.03090349      -0.96525061
H        0.32078040      -0.87984765       0.26651254
H        1.50079918       0.30028951       0.59609360
H        0.95570779       0.21589631       1.39847386
H        1.23978615      -0.72620738       1.69013119
H        1.27668452      -1.24569976       0.19085923
H        0.36420953      -1.25215888       1.58980942
H        1.94406569      -1.09205949       1.03938818
H        0.02270681       0.19899730       1.12047303
H        0.61927569      -0.58668232      -1.37306488
H        2.49506855      -0.33839881       0.76288831
H        0.10703018      -0.96880263       1.26637340
H        2.03173780      -0.55860066      -0.58546209
H        2.24926114       0.32268381       1.43416286
H       -0.25530297       0.31530851       0.88513386
H        1.01680684      -1.46652997      -1.24697757
H       -0.16847819      -0.50228912      -0.80704147
H        2.02256966       1.19937325       0.95109910
H        1.51182008       1.67138100       1.55498767
