21
Properties=species:S:1:pos:R:3 pbc="F F F"
H        0.00000000       0.00000000       0.00000000
H        0.79402828      -0.31375703       0.65969908
H        1.59159446      -0.39815024       0.10758764
H        0.57153141      -1.22534966       1.07541275
H        1.41285491      -0.11500362      -0.80671048
H        0.45488459       0.25084847      -0.84877044
H        1.84685969      -1.33679557       0.15054752
H        1.15047038      -1.86449277       0.58024329
H       -0.39417803      -1.42010820       0.78766596
H        0.61765766      -2.45031357      -0.07263374
H        1.73396754      -1.65210414      -0.76372647
H        1.56720829      -0.95256555      -1.37941349
H       -0.33357492      -2.10560226       0.09883666
H        0.99322063      -2.34892082      -0.90180027
H        0.70754647      -1.10404634      -1.81080198
H       -0.69719338      -0.60363579       0.24463886
H       -0.05736834      -0.41939747      -1.43331409
H       -0.81135857      -0.88678241      -0.67994493
H        0.45810938      -1.99783707      -1.51587808
H       -0.65940315      -1.89916205      -0.60700160
H       -0.16248989      -0.47742045      -1.27948904
