21
Properties=species:S:1:pos:R:3 pbc="F F F"
H        0.00000000       0.00000000       0.00000000
H        0.63772744       0.77136850       0.22719663
H       -0.96202916       0.29845181       0.19685073
H       -1.55843234      -0.41062811      -0.10243143
H        0.01845550      -0.24138860      -1.05143619
H       -0.94250488      -1.11970806      -0.35914147
H       -0.58002985       0.34443223      -1.64469242
H       -0.02706832      -0.68821847      -0.52977723
H       -1.99122512       0.08835161      -0.81781280
H       -1.27007079       0.72288644      -1.07138896
H       -0.75940007       1.08873856      -0.25979084
H        0.20807087       1.43813443      -0.58544385
H        1.14762759       0.48822188      -0.55247688
H       -1.20857942      -1.20866311      -1.34636748
H        0.92859346      -0.32987416      -0.91452765
H       -0.49359739       0.23723006      -0.41554010
H        0.46430498       1.54597068      -0.33669800
H        1.11518300       1.24188256      -1.16810966
H       -0.62342966       0.32296595      -0.40879846
H       -0.00008553       0.66416633      -0.82707125
H       -2.25314069       1.14225459      -1.21914291
