21
Properties=species:S:1:pos:R:3 pbc="F F F"
H        0.00000000       0.00000000       0.00000000
H        0.42330277      -0.73181123      -0.48304045
H        0.23940882      -1.54547203       0.01915479
H        0.08863404      -0.82076621      -1.44917083
H       -0.40547743      -1.65249729      -1.55934477
H       -0.47777522      -0.37845421       0.75931829
H       -0.68932557       0.40936196      -0.55255222
H       -0.61844659      -0.00984031      -1.53018665
H       -1.44381928      -0.32777756       0.64863098
H       -0.25186300      -1.32551610       0.74939954
H       -1.88325799      -1.25518441       0.66020238
H       -1.54805350      -0.40875149      -1.70346355
H       -2.35096669      -1.30860031      -0.25178409
H       -2.10375214      -0.15810791      -0.94422859
H       -2.48444486      -1.02295232      -0.70932835
H       -1.47670078       0.17424428      -0.20282948
H       -0.33788797      -2.13129282      -0.59473956
H       -1.11786532      -1.76529253       0.68086141
H       -1.87148023      -2.02152252      -0.58370638
H       -1.68604445      -1.90351439      -1.53225708
H       -1.05871010      -2.10135388      -0.15783128
