21
Properties=species:S:1:pos:R:3 pbc="F F F"
H        0.00000000       0.00000000       0.00000000
H        0.45934626      -0.55622131       0.73002923
H       -0.39868912       0.83756196       0.43915913
H       -0.82225716       1.36525917      -0.26097426
H        0.61498117       0.20606343      -0.65396768
H        0.31975022      -0.00044250       1.51722908
H        1.21936929       0.29800931       1.91084814
H        1.39019704      -0.40474051       0.48789021
H        0.26618734       1.43906474       0.65004188
H       -0.88613623       0.64271128      -0.98703754
H        0.72804874       1.17149460      -0.71070635
H        1.80296290       0.30433941       1.01219058
H        1.47307229      -0.00582933      -0.45408937
H        1.13218963       0.99928832       0.58150369
H       -0.68902057      -0.22213310      -0.58547753
H        1.97158539       0.88885075      -0.38808796
H        0.87743402       0.54567105      -0.36372554
H        1.04478574       1.84732974       0.06842899
H        0.02375150      -0.32021171      -1.45886600
H       -0.30712739       0.73136872       1.37745166
H       -0.19681048       1.05207324      -1.53958964
