21
Properties=species:S:1:pos:R:3 pbc="F F F"
H        0.00000000       0.00000000       0.00000000
H       -0.01035373      -0.77460212      -0.58986890
H       -0.67648053      -0.72392547      -1.29822469
H        0.82397598      -0.85899532      -1.08467460
H       -0.68775237      -1.45573664      -1.94039774
H       -0.68874115       0.52769721      -0.44185090
H        0.86782366       0.46354809      -0.29211149
H       -0.41437545      -0.01484555      -1.91187572
H        0.80695224      -0.77460212      -2.05454516
H        0.69440120       1.23815024      -0.85600615
H       -0.28344646       1.34135795      -0.79078257
H       -0.03804892      -2.09860420      -1.47356725
H        1.36274791       0.04187030      -2.33345008
H       -0.15283591      -0.51041025      -2.30421162
H        1.41588998      -0.17931947      -0.87492228
H       -0.01867627       0.32715172      -2.88197875
H       -1.15410185       0.03264913      -1.21106517
H        0.19814625      -1.76625204      -0.53171921
H       -0.53192973       1.03623164      -2.45555472
H        0.82099855       0.70295292      -2.79986024
H        1.71794033       0.48164675      -1.54067278
