21
Properties=species:S:1:pos:R:3 pbc="F F F"
H        0.00000000       0.00000000       0.00000000
H       -0.49101692      -0.19475858      -0.87994057
H       -0.07690102       0.44810897      -1.56445003
H       -0.57291448      -0.08439321       0.78275651
H       -1.47335815      -0.06658076       0.29061049
H       -1.43790388      -0.07675048      -0.68618822
H        0.49654031       1.06282353      -0.97570986
H       -0.02803451       1.93951297      -1.07348955
H       -0.31697339       2.21725321      -0.07174015
H       -0.42951173       0.79545444       1.17437446
H       -1.32607293       2.05758429       0.02597141
H        0.28838128       1.26511550       0.71382153
H       -1.79944849       0.77204865      -0.99745411
H       -1.93197632       1.38194871      -0.25011265
H       -1.88921821       0.79826361       0.45543006
H       -0.99591672       1.26709676      -1.40067601
H       -1.29199910       1.35167575       1.16680574
H        0.53061742       0.73047137      -0.00529516
H       -0.85693735       2.13194108      -0.97548223
H       -1.10748458       2.20931816       0.63414460
H       -0.88998806       0.88788545      -1.87030458
