21
Properties=species:S:1:pos:R:3 pbc="F F F"
H        0.00000000       0.00000000       0.00000000
H       -0.02481474      -0.91159266      -0.47085762
H        0.83983207       0.11800810       0.47834828
H       -0.95552367      -1.19473934      -0.51172066
H        0.42022169      -1.60840940       0.13718265
H        1.45701504      -0.62940043       0.14102113
H        0.54281890      -0.06676287       1.38703072
H        1.37323046      -0.81417143      -0.81129223
H       -1.04646182      -1.98913836       0.13169545
H        0.42022169      -1.26131892       1.04690194
H       -1.51029766      -0.35960186      -0.11309987
H        0.81659883      -0.04280293      -1.19661784
H       -1.93817270      -0.69195402       0.75855887
H       -0.21143454      -0.46691990       1.19942880
H        1.30540776      -0.70963043       1.62890553
H       -0.08626068      -1.95813560       1.60479617
H       -1.75988817      -1.80436742       0.76804709
H       -0.11456335      -2.42207026       0.13248968
H        0.79142100      -1.58631980       1.77228367
H        1.80945587      -0.69364488       0.85818005
H       -0.83100343       0.33721489       0.21298257
