21
Properties=species:S:1:pos:R:3 pbc="F F F"
H        0.00000000       0.00000000       0.00000000
H        0.05739931      -0.52769721       0.81627315
H        0.34282357       0.95566529       0.14999890
H        0.05739931       0.19485068       1.54514098
H       -0.33485988       1.04364979       1.27360129
H        1.05063868       0.35451961       1.74837792
H        0.62322944      -0.39891118      -0.71118128
H        1.33124804       0.93785286       0.42572266
H        1.28027260       1.27295017       1.52075028
H        1.12045872       0.37245733      -1.17061305
H        1.85323524       0.12419206       0.30933326
H        1.99530804       1.28984916       0.86006910
H        0.89090312      -1.02667689       0.75030696
H        1.16759801      -1.09572792      -0.19018888
H        0.30798200       1.72914398       1.52838147
H        0.68763065       1.16706753      -0.81100845
H        2.11143279      -0.69681674      -0.13213818
H       -0.49569297       0.95469481       0.26387680
H        0.97260773      -0.12645152      -0.02192762
H        0.44661236       2.25509548       0.65804791
H        1.64577413       1.65438735      -0.71823102
