21
Properties=species:S:1:pos:R:3 pbc="F F F"
H        0.00000000       0.00000000       0.00000000
H       -0.73394406      -0.63587439       0.07106813
H       -1.06583929      -0.95118290      -0.78828460
H        0.77944088      -0.58319080       0.02052450
H        0.55962873      -1.53025270       0.07360283
H       -0.55788261      -0.42523134      -1.50847816
H       -0.17653784       0.32842934      -1.02408922
H        0.79483426       0.38184524      -1.35105538
H       -0.19836277      -1.40724289       0.48515421
H       -0.62663412      -2.20164204      -0.00355604
H        0.19048584      -2.63313150      -0.45016059
H        0.80696988      -0.30364895      -2.04243898
H       -0.05981222      -2.78461218      -1.37885070
H        0.53136849      -2.14873791      -1.81956601
H        1.35303545      -1.05730963      -1.75631166
H       -0.86630207      -1.88028061      -1.00047135
H       -1.00755131      -2.45226002      -1.59017181
H       -0.93200278      -1.69859934      -2.20201254
H        0.73656553      -1.87378204      -1.67469323
H        1.36954772      -1.30795324      -2.69703794
H        1.06100750      -0.45031083      -3.16881800
