21
Properties=species:S:1:pos:R:3 pbc="F F F"
H        0.00000000       0.00000000       0.00000000
H        0.54628479      -0.64623839      -0.66938484
H        0.77548593      -0.06304759      -1.41464734
H        1.79563928      -0.00963168      -1.31586552
H        0.66553187       0.31530851       0.63695270
H        2.02442789       0.93247199      -0.97908622
H       -0.32188576       0.81647241      -0.53205854
H        1.24474680       1.51566279      -0.98592830
H       -0.33839795       0.56582880      -1.47278476
H        0.54785776       0.93247199      -1.33563542
H       -0.38397509      -0.39960235      -1.59079444
H       -0.53823268      -0.80896431      -0.72091609
H        0.08947021       1.63013315      -0.19029349
H        0.62043101       1.94544172      -0.94310296
H        1.92553246       0.68182838      -0.04342693
H        1.59170353      -0.18301600       0.25433689
H       -1.08826041      -0.28126711      -0.11505628
H       -1.74857068       0.21378097      -0.72517234
H        0.63203567      -0.05862910       0.59622777
H        1.54065323      -0.09862279      -0.71433878
H        0.52888703       1.19864357       0.63071418
