21
Properties=species:S:1:pos:R:3 pbc="F F F"
H        0.00000000       0.00000000       0.00000000
H       -0.81573808      -0.52769721      -0.06456009
H       -0.09677097       0.68549418       0.68468529
H       -1.41948390      -0.00174564      -0.70658016
H       -0.87068218       0.74566287      -1.14649045
H        0.03988612       0.49501929      -1.38335347
H        0.12822318      -0.52660799      -1.34094894
H       -2.34941053       0.22786790      -0.33801839
H       -0.73484039      -0.96638441      -1.43983698
H       -0.72009075       0.49073559       1.47643363
H       -1.35810959       0.97527641      -2.01999831
H       -2.05583954       0.31419379      -2.17557383
H       -0.82656819      -0.47469556       1.40812469
H       -0.03935194      -0.85314977       0.97786427
H       -0.70908892      -1.43928981      -0.52385151
H        0.16996270      -1.61407316      -0.31158566
H        0.42611349       0.63216382      -0.32860684
H       -2.44264913       1.24558830      -0.68396497
H       -2.08468223      -0.30052078      -1.35422254
H        0.73779351      -0.29737097       1.16552269
H       -1.68180013       1.46342683      -1.25116527
