21
Properties=species:S:1:pos:R:3 pbc="F F F"
H        0.00000000       0.00000000       0.00000000
H       -0.33100656      -0.58582085      -0.77496612
H       -0.12038140      -0.15433127      -1.68203712
H        0.44780058      -0.79719883      -2.24525499
H        1.30686212      -0.35742238      -2.37437057
H        0.22783086      -1.44346333      -0.70097798
H        0.41064006       0.70331115      -1.49285555
H        0.91509151      -1.35450828       0.05604488
H        1.28707886       0.50022006      -1.81100392
H        1.84574628      -1.65296006      -0.25721568
H        0.68725604      -0.43977645       0.53135377
H        0.72812033      -1.56147146      -1.52792740
H        1.72944903      -1.87079859      -1.19906616
H        0.41330290       0.79461014      -0.38188517
H        1.91576052       0.51711905      -1.06767714
H        1.39729095       0.50022006      -0.24368405
H        2.16727972      -1.11713791      -1.63307166
H        2.61256075      -0.61815822      -0.92539591
H        2.24079037       0.33750707      -0.96799254
H        1.54715157      -0.58944070      -2.16696072
H        2.30949306      -0.80416095      -0.14523406
