21
Properties=species:S:1:pos:R:3 pbc="F F F"
H        0.00000000       0.00000000       0.00000000
H        0.90784711      -0.05341591       0.47569352
H        0.19060609       0.58582085      -0.82085752
H        0.73785949      -0.03651691       1.43427563
H        1.22981834       0.77995551       1.81463492
H        1.13781953       0.80365932      -0.76259899
H        1.54203522       0.19375926      -0.12018752
H        1.19871128       1.73275709      -0.47776476
H        1.96390295       0.92631024       0.55027801
H        1.61777568       1.78617299       0.45757255
H       -0.15508914       0.34193730       1.52074027
H        0.66971648       1.57456565       1.86886978
H        1.96617913       0.87347233       1.03159285
H       -0.11653054       1.22081351       1.79355478
H       -0.35237756       1.44346333      -0.66939062
H        1.09725809       2.31212449       1.16874075
H       -0.61641669       0.40936196       0.63286185
H        0.93477231       1.64187860       1.92880177
H        0.33156466       2.07984757      -0.20272690
H       -0.91862428       1.24870479       0.16413057
H        0.18926144       2.33085036       0.58623004
