21
Properties=species:S:1:pos:R:3 pbc="F F F"
H        0.00000000       0.00000000       0.00000000
H       -0.26684549      -0.92909771       0.11675546
H        0.40221074      -1.29494977       0.80366153
H        0.55165738      -0.63386714       1.50272977
H        1.31274760      -1.41933668       0.34674323
H        0.01092809      -1.28709495      -0.68512839
H        0.07646679      -0.47343415      -1.21590304
H        0.98259670      -0.63310307      -1.67060995
H        2.00736046      -0.78346229       0.59420586
H        1.49904907      -1.29418564      -1.17633510
H        1.51344907      -0.48238635       1.49428940
H        0.54697573       0.21783850      -0.77551579
H        1.58669150       0.16129595      -1.43118656
H        1.25874269      -1.40152419      -0.67799580
H        0.72368902       0.25064358       0.60125941
H        1.56132174       0.37503049       0.02141196
H        1.50432682       0.36931929      -0.68281513
H        0.79932266      -1.84287381      -0.55244547
H        0.05509725       0.14073497       1.18416953
H        2.17414474      -0.14758790      -0.12406123
H        1.55731273       0.52999330       1.33154058
