21
Properties=species:S:1:pos:R:3 pbc="F F F"
H        0.00000000       0.00000000       0.00000000
H        0.83968246      -0.37845421      -0.31585881
H       -0.70310861      -0.74740851       0.01851445
H        0.27926147       0.19475858       0.96819729
H        0.63359517      -1.34652972      -0.58730280
H       -0.82865727      -1.12586272       0.90681112
H       -0.33693194      -0.27490246       1.55793023
H       -1.02625751      -0.68426442       1.00537801
H        1.18062711      -0.20415260       1.25408864
H        0.95239824      -1.92972052       0.12425464
H        0.29925233      -2.56559491       0.46648997
H        0.16758157      -2.31495142       1.39810228
H       -0.56028438      -2.16668367       0.07229403
H        1.49327505      -0.42913085       0.40407839
H       -0.33693546      -1.39720631      -0.52761036
H        1.08385611      -0.88964677       1.93877387
H        0.26189226      -0.91077685       1.98820245
H       -0.01621410      -1.82920742       1.82326937
H       -1.15343380      -1.80083156       0.82571948
H        1.02608681      -1.75873017       1.48123169
H       -0.62015259      -2.01867008       1.61071539
