7
Properties=species:S:1:pos:R:3 pbc="F F F"
H        0.00000000       0.00000000       0.00000000
H       -0.92501378       0.29845181       0.32954502
H       -0.52256835      -0.77460212       0.27381530
H       -0.97455621      -0.11351949      -0.28002378
H       -0.41060799      -0.13173455       1.06597066
H       -1.39976716      -0.34311253       0.58632576
H       -0.49346671      -0.29845181       0.84896463
