6
Properties=species:S:1:pos:R:3 pbc="F F F"
H        0.00000000       0.00000000       0.00000000
H        0.13252793       0.60990006       0.74734145
H       -0.30690819       0.97931916       0.00808159
H        0.42778403       0.74970561      -0.67076206
H        0.93046618       0.52009207       0.19405711
H        0.51749712       1.35730863       0.15869623
