6
Properties=species:S:1:pos:R:3 pbc="F F F"
H        0.00000000       0.00000000       0.00000000
H        0.21426670       0.05341591       1.00227761
H       -0.75733072       0.31760776       1.20108616
H       -0.17853267       0.86707669       0.63933730
H       -0.55782884      -0.55577880       0.57271093
H       -0.94451708       0.28125584       0.28804579
