21
Properties=species:S:1:pos:R:3 pbc="F F F"
H        0.00000000       0.00000000       0.00000000
H        0.14728610      -1.02954066      -0.28719354
H        0.99077457       0.26419187      -0.04350019
H        0.42334276      -0.23514163      -0.87545091
H        1.11415243      -0.73406243      -0.24743664
H        0.61211467      -0.43262488       0.60794973
H        0.13009885      -0.86411446      -0.18879449
H        1.08786249      -0.00946307       0.12643102
H        0.36233142       0.50202805      -0.53140014
H        0.50811517      -0.95974100      -1.24052870
H        1.10188973       0.00310725       0.10176668
H        0.79381812      -0.45091581       0.62736320
H        0.86552638      -0.35560822       0.61454856
H        1.17796516      -0.38697195       0.66004175
H        2.32913971      -1.04610133      -0.85713184
H        2.32913971      -1.04610133      -0.85713184
H        2.32913971      -1.04610133      -0.85713184
H        2.32913971      -1.04610133      -0.85713184
H        2.32913971      -1.04610133      -0.85713184
H        2.32913971      -1.04610133      -0.85713184
H        2.32913971      -1.04610133      -0.85713184
