6
Properties=species:S:1:pos:R:3 pbc="F F F"
H        0.00000000       0.00000000       0.00000000
H        0.88292891      -0.28314662      -0.29719594
H        0.94925982      -0.68205780       0.64609301
H        0.26904082      -0.91843063       0.17934076
H        0.11036691      -0.30853057       0.92157078
H        0.80314994       0.32675344       0.45760080
