21
Properties=species:S:1:pos:R:3 pbc="F F F"
H        0.00000000       0.00000000       0.00000000
H        0.05739931      -0.52769721       0.81627315
H        0.73215938       0.67024595       0.26083893
H       -0.41300902       0.61471456       0.71054447
H        0.47129425       0.26762408       0.92407846
H       -0.16156095       1.13379407       0.06156263
H       -0.86156708      -0.16184512       0.54245412
H        0.26280922       1.19619751       1.00676751
H       -0.04239246       0.16836292       0.10401757
H       -0.13711807       0.10374826       1.29476261
H        0.25769189      -1.19345164       0.38946375
H        0.27254716      -1.19345164       0.39675581
H        0.95924878      -0.87478769       0.93567491
H        0.95924878      -0.87478769       0.93567491
H        0.95924878      -0.87478769       0.93567491
H        0.95450282      -0.87478769       0.96725124
H       -0.35973001      -0.40285194       1.30946922
H       -0.35973001      -0.40285194       1.30946922
H       -0.35973001      -0.40285194       1.30946922
H       -0.35973001      -0.40285194       1.30946922
H       -0.35973001      -0.40285194       1.30946922
