21
Properties=species:S:1:pos:R:3 pbc="F F F"
H        0.00000000       0.00000000       0.00000000
H       -0.50007260       0.47200781      -0.61275923
H       -0.78140128       0.46966103       0.34189394
H        0.37112588       0.88136977      -0.46614087
H       -0.33794260       1.38360047      -0.16999912
H        0.28798306       0.95211089       0.51946276
H       -0.64713222       0.55319971       0.37891638
H        0.70750386       0.36846134       0.17084196
H       -1.18492937       0.07850802      -0.81682193
H       -1.35884047       0.06264585      -0.40539148
H        0.70750386       0.36846134       0.17084196
H        0.70750386       0.36846134       0.17084196
H       -1.17734599       0.07850802      -0.84073108
H       -0.00208664       0.61530042      -1.37421513
H       -1.09142733       0.28723684       0.13838667
H       -1.16222835       0.25416932       0.06706202
H        0.04737200       1.07976222       0.33517215
H       -0.05773909       1.05368233       0.40852240
H        0.65732741       0.99366087      -1.04813218
H        0.65732741       0.99366087      -1.04813218
H        0.65732741       0.99366087      -1.04813218
