6
Properties=species:S:1:pos:R:3 pbc="F F F"
H        0.00000000       0.00000000       0.00000000
H       -0.81573808      -0.52769721      -0.06456009
H       -0.54409063       0.31530851       0.74337530
H       -0.97727585       0.48468244      -0.11269255
H       -1.45081937      -0.10113841       0.58436859
H       -0.55597675      -0.59618652       0.67101651
