21
Properties=species:S:1:pos:R:3 pbc="F F F"
H        0.00000000       0.00000000       0.00000000
H        0.54069358       0.79439902       0.36042264
H       -0.13662821       0.98915762       1.10649776
H       -0.48610592       0.90476441       0.20161986
H        0.42723128       0.00000000       1.00025105
H       -0.64365321       0.19475859       0.70007473
H       -0.52866912       0.05067664       0.82207304
H       -0.51846522       1.56349063       0.67077482
H        0.43270332      -0.55388004       0.41412222
H       -0.53352147       1.56349063       0.68444353
H        0.28849572       1.27230430       0.27754754
H        0.31732517       1.27230430       0.29297751
H        0.42670637       1.27230430       0.36451197
H        0.81451750       1.14063835       0.96354210
H       -0.51531035       1.70100713      -0.03680861
H       -0.54412407       1.66130424      -0.04764733
H        0.81451750       1.14063835       0.96354210
H        0.03526109       1.06777358       0.17029685
H        0.82686561       1.10716569       1.03024375
H        0.84796727       1.17339098       0.47484601
H        0.86952823       1.17339098       0.50978887
