21
Properties=species:S:1:pos:R:3 pbc="F F F"
H        0.00000000       0.00000000       0.00000000
H       -0.58002573       0.67024595       0.51736289
H        0.18345582       1.04870009       0.98845661
H        0.03491080       0.11446714       1.02826786
H        0.10539354       0.96046287      -0.12026697
H        0.67531025       0.47176766       0.46542126
H        0.17728743       1.01387882       0.90213317
H        0.56128043       0.72133434       0.15820950
H        0.57962716       0.75626099       0.19535780
H        0.00115589      -0.03701365       1.98950410
H        0.03491080      -0.07030383       1.98425984
H        0.00078614       0.06379051       2.00003338
H       -0.25136343       0.98325282       0.92058164
H       -0.25136343       0.98325282       0.92058164
H       -0.28336531       0.97211552       0.92113537
H        0.11347092       1.13609445       0.96970260
H       -0.02237689       0.71696532       1.03585255
H       -0.61614990       1.14803624       0.83427513
H        0.01934726       0.71951658       1.02421939
H        0.43587404      -0.26510787      -0.38186085
H        0.43587404      -0.26510787      -0.38186085
