6
Properties=species:S:1:pos:R:3 pbc="F F F"
H        0.00000000       0.00000000       0.00000000
H        0.83968246      -0.37845421      -0.31585881
H        0.28358355      -0.96807545       0.18903485
H       -0.54566520      -0.81647241      -0.29823846
H        0.35199407      -1.21601617      -0.65345883
H        0.04994432      -0.21783850      -0.94768816
