6
Properties=species:S:1:pos:R:3 pbc="F F F"
H        0.00000000       0.00000000       0.00000000
H       -0.30729049       0.46966103      -0.79564559
H       -0.78936791      -0.23941889      -0.33426943
H       -0.40834945      -0.32381210      -1.22632527
H        0.00816649      -0.88228643      -0.39738888
H        0.43279180      -0.12438690      -0.92224884
