7
Properties=species:S:1:pos:R:3 pbc="F F F"
H        0.00000000       0.00000000       0.00000000
H        0.54628479      -0.64623839      -0.66938484
H        0.43496779       0.30809897      -0.82721287
H       -0.58060670       0.18371207      -0.90758866
H       -0.50769836      -0.66108263      -0.50326246
H       -0.04546535      -0.51310468      -1.43805456
H       -0.06226149      -0.46326953      -1.28664470
