21
Properties=species:S:1:pos:R:3 pbc="F F F"
H        0.00000000       0.00000000       0.00000000
H        0.87909138       0.39891118       0.34841394
H        0.81527871       0.05182070       1.25589228
H        0.69569218      -0.59047163       0.55042958
H       -0.13037406      -0.28314662       0.92243779
H        0.07002437       0.70623618       0.73727286
H        0.77047783       0.15001488       1.24056864
H       -0.03870058       0.68608963       0.93786597
H        0.54179704      -0.96864080       1.08474791
H        0.51826620      -0.99222654       1.07906592
H        0.77520400       0.00000000       1.14110899
H        0.47670496      -0.76774389       0.43075037
H       -0.47642952      -0.68652201      -0.07656413
H       -0.47163874      -0.72297180      -0.06273389
H       -0.47163874      -0.72297180      -0.06273389
H       -0.47163874      -0.72297180      -0.06273389
H       -0.50600255      -0.72297180      -0.05015051
H       -0.75540960      -1.50947046       0.59387797
H       -0.75540960      -1.50947046       0.59387797
H        1.60831797      -1.70731974       0.13638774
H        1.60831797      -1.70731974       0.13638774
