6
Properties=species:S:1:pos:R:3 pbc="F F F"
H        0.00000000       0.00000000       0.00000000
H        0.50421435      -0.31530851      -0.77097952
H        0.86802626      -1.15044594      -0.19278097
H        0.92928320      -0.18477097       0.22439535
H       -0.09060872      -0.97639114      -0.37447453
H        0.20804816      -0.82763851       0.57061088
