6
Properties=species:S:1:pos:R:3 pbc="F F F"
H        0.00000000       0.00000000       0.00000000
H        0.05321160       0.83173102       0.50344110
H        0.27497137       0.84879911      -0.38986123
H       -0.53291857       0.52595156      -0.70192361
H       -0.85562766       0.49937883       0.16156799
H       -0.58198428       1.34384716      -0.11805570
