21
Properties=species:S:1:pos:R:3 pbc="F F F"
H        0.00000000       0.00000000       0.00000000
H        0.93511528      -0.39891118      -0.14054634
H        1.00237739      -0.76476324       0.81598490
H        0.15754265      -0.95513248       0.23271300
H        0.17097241      -0.40676603       0.98610723
H        0.90847850       0.21098888       0.61798739
H        0.83568090       0.29845181       0.51564312
H        0.46148115       0.39569896      -0.44439876
H        1.35199797      -0.80827314       0.63835847
H        0.51550436      -0.84889066       1.57884324
H        0.42822957       0.35474950      -0.49143565
H        1.05825758       0.43281984       0.35049379
H        1.00187981       0.44988793       0.33183438
H        1.06587160      -0.01978415       0.31278461
H        1.76063275      -0.31451797       0.36882561
H        1.76063275      -0.31451797       0.36882561
H        1.76063275      -0.31451797       0.36882561
H        1.75764275      -0.28090307       0.36698067
H        1.47701621      -1.10799110       0.24882494
H        1.45670474      -1.13072240       0.23423056
H        1.44323087      -1.13072240       0.25230455
