21
Properties=species:S:1:pos:R:3 pbc="F F F"
H        0.00000000       0.00000000       0.00000000
H       -0.33764970       0.29845181       0.92208624
H       -0.86456466      -0.25732699       0.32081145
H       -1.26096487       0.52806532       0.53726101
H       -0.85020375       0.27037022      -0.49735129
H       -0.28690279       0.85356104       0.04176044
H       -1.22111666       0.58936918       0.37458310
H       -0.99165118      -0.62578833       1.03746867
H       -1.45636296       0.18787247       1.30215728
H       -1.16593611      -0.34172019       1.24282765
H       -0.46889314      -0.01863146       1.66218472
H       -0.46889314      -0.01863146       1.66218472
H       -0.96815068      -0.60030591       1.05371523
H       -0.41928360       0.24165273       1.02848721
H       -0.43594384       0.21233404       1.05821466
H       -0.13303214      -0.31896073       1.25001311
H       -0.06965482      -0.31896073       1.19641066
H       -0.04140544      -0.35996738       1.16593170
H       -0.01534057      -0.40085036       1.13356829
H       -1.08159626       0.06001154       0.85468316
H       -1.10019839       0.06001154       0.84673774
