6
Properties=species:S:1:pos:R:3 pbc="F F F"
H        0.00000000       0.00000000       0.00000000
H       -0.73394406      -0.63587439       0.07106813
H       -0.26127204      -0.55148119      -0.77599740
H        0.04383602      -0.87984765       0.41473773
H       -0.19670522      -1.40754485      -0.36739811
H        0.60792494      -0.78109473      -0.28092358
