21
Properties=species:S:1:pos:R:3 pbc="F F F"
H        0.00000000       0.00000000       0.00000000
H        0.07742673      -0.40936196      -0.88005048
H        0.72003603       0.73255098      -0.33021888
H       -0.18879998       0.73181123      -0.61389565
H        1.23500752       0.48190740      -1.11764693
H        0.54316723       1.14298999      -1.29761291
H        0.95359540      -0.08439321      -0.17774853
H       -0.66612679      -0.05067664      -0.70835578
H       -0.27571660       0.46761936      -1.60180867
H       -0.27476943      -0.36598516      -1.54231071
H        0.66340595       0.21771553      -1.92807782
H        0.51370662      -0.00438845      -1.55325508
H        0.87194806      -0.36753982      -1.10576940
H       -0.08195442       0.55979919      -1.76363051
H        0.19557065      -0.61034477      -0.62730098
H        1.34733272       0.75074428      -0.73599899
H        0.21532178       0.75686336      -2.70949936
H        0.77000815       0.61334002      -1.67312181
H        0.83830911       0.57262999      -1.71939886
H        0.68929565       1.22041142      -3.49295044
H        0.69733763       1.18835294      -3.50624347
