21
Properties=species:S:1:pos:R:3 pbc="F F F"
H        0.00000000       0.00000000       0.00000000
H       -0.33100656      -0.58582085      -0.77496612
H        0.20144513       0.08442509      -1.34117234
H        0.63820314      -0.58582085      -0.69825971
H        0.99352705       0.16783983      -1.20204675
H       -0.51775634       0.34158605      -1.17291689
H        0.46627399       0.91159266      -0.07008024
H        0.36842000       0.80513418      -1.40343487
H        0.97023398       0.11099589      -0.02185315
H        1.27383971       0.69681674      -0.80795830
H       -0.42330274       0.73181123      -0.48304048
H        0.21011394       1.20985746      -0.90300161
H        0.37087041       1.16036487      -0.65599287
H       -0.67549801       0.05341591      -0.77082628
H        0.84992039       0.15002736      -0.18598390
H       -1.31064284       0.41650271      -0.23551437
H       -0.57526642       0.75948167      -0.31977212
H        0.34808660      -0.79461014       0.44214398
H       -0.09187540       0.69086128       0.51809710
H        0.31753701      -0.75703698       0.28323185
H        0.44648728       0.58822089      -0.53165764
