21
Properties=species:S:1:pos:R:3 pbc="F F F"
H        0.00000000       0.00000000       0.00000000
H       -0.02481474      -0.91159266      -0.47085762
H        0.67889470      -0.34709048       0.60555023
H       -0.39144397      -0.89469367       0.43100619
H        0.04054803      -1.72806501       0.14754713
H        0.87390167      -1.40664077      -0.44719231
H        0.94400561      -0.22270358      -0.37810010
H        1.40348577      -0.79674071       0.09652054
H        0.91030055      -0.51268148      -0.61140394
H        0.71261770      -1.30142784       0.79571837
H       -0.15987903      -0.93291134       0.68676907
H        1.00660813      -1.47257590       0.83804756
H        1.25374901      -1.30139029       0.32662505
H        0.43200183      -0.60686719      -0.92056555
H        0.37373152      -0.57120931      -0.96767706
H       -0.92153728       0.67594719      -0.31019166
H        0.23294644      -0.91661429       0.71267700
H       -0.08912184       0.60686719      -1.01297772
H        0.33435941       0.02104634      -0.28441650
H       -1.42654169      -0.14052522       0.05266827
H       -1.05305839       0.17696747      -1.13589275
