21
Properties=species:S:1:pos:R:3 pbc="F F F"
H        0.00000000       0.00000000       0.00000000
H        1.00909960       0.15966894       0.09771150
H        0.17369288      -0.42615193       0.20831639
H        0.76722330       0.89148015       0.69269818
H        0.49064815       1.14212370      -0.20660430
H       -0.19915187       1.05114913       0.99920893
H       -0.14759862       1.55148566       0.40423506
H       -0.31288368       0.64707565      -0.60982609
H        0.28811654       0.11687803       1.03694987
H       -0.80016154       0.52345192       0.44388562
H        0.51090682       0.52477556      -0.51274425
H       -0.93653232       0.90861809       0.53700882
H       -0.60219550       0.21558607       0.27529496
H       -0.43194425       1.11170924      -0.41662127
H        0.78490782       0.69672155      -0.31481367
H       -0.08599514       1.56742740       0.22636357
H       -0.00373557       0.67075807       0.51392817
H        0.44896650       0.74971604       0.29095340
H       -0.70184022       0.67193282       0.40909886
H       -0.29752985       1.22656691      -0.99548560
H       -0.31723130       1.20587301      -1.00340700
