21
Properties=species:S:1:pos:R:3 pbc="F F F"
H        0.00000000       0.00000000       0.00000000
H        0.59380746      -0.49897972      -0.58861941
H       -0.10011780      -0.03543162      -1.18604279
H        0.56538147      -0.83756196       0.17932531
H        0.22816238      -1.00350714      -1.09446812
H       -0.79208505       0.22876024      -0.47561485
H       -0.31272531      -0.52225345       0.45783946
H       -0.32100028      -1.43384612      -0.01359898
H       -0.69698858      -0.57201755      -1.20046997
H       -1.20046067      -0.66591984      -0.18218538
H       -1.02575088      -0.77289701      -0.15602800
H        0.48982108      -1.38464785       0.33721802
H       -0.54703045      -1.32567823      -0.60249925
H        0.32302892      -1.42807746      -0.48130059
H       -0.03714775       0.17063181      -0.29054821
H       -1.12233508      -0.76630592      -0.46869993
H        0.55511546      -1.10614753       0.03907549
H       -0.56319761      -1.23312068      -0.48262596
H       -0.71774316      -0.51038378      -2.38289332
H       -0.71774316      -0.51038378      -2.38289332
H       -0.71774316      -0.51038378      -2.38289332
