21
Properties=species:S:1:pos:R:3 pbc="F F F"
H        0.00000000       0.00000000       0.00000000
H       -0.37664786      -0.36585209      -0.88182342
H       -0.32244360       0.60990006      -0.68710476
H       -1.20537257       0.32675344      -0.98430073
H       -0.51263720       0.77460212       0.29198578
H       -1.18406558       0.89898902      -0.47419664
H       -1.25422513      -0.64899874      -0.56917810
H       -1.43440914       0.52395856       0.48059908
H       -1.77494442       0.12236977      -0.13655123
H       -0.72389734      -0.14704573       0.81166041
H       -1.58343363      -0.57853532       0.45341739
H       -0.63928199      -0.73181123       0.06190195
H       -1.54541588      -0.44147259       0.41992730
H       -0.53458863      -0.94560575      -0.31704193
H       -0.06471694      -1.01156473       0.61229312
H        0.44822013      -1.62470388       0.77498436
H       -0.33431280      -1.21534193       1.18501592
H       -1.06069958      -1.62470388       0.68217802
H       -0.86405563      -1.67811978      -0.32370555
H        0.25236601      -1.97409976      -0.22685945
H       -0.23773423      -1.26501989      -0.67970419
