21
Properties=species:S:1:pos:R:3 pbc="F F F"
H        0.00000000       0.00000000       0.00000000
H        0.69739223       0.29845181      -0.69129914
H       -0.16517133       0.76199991      -0.38400263
H        0.47277200      -0.66962361      -0.94761842
H       -0.97105587       0.29845181      -0.14594820
H       -1.22641885      -0.14132464      -0.97627783
H        0.14638841       0.48322278      -1.47252607
H       -0.98019880       0.82675081      -0.74063087
H       -0.21898112       0.85095489      -1.40503907
H       -0.45810920      -1.10111320      -0.92310619
H       -0.89569324      -0.54533440      -1.59220338
H       -0.80100352       0.47338992      -1.67946458
H       -0.05156165      -0.32253313      -1.69103169
H        0.13630247      -0.55919063      -0.63696855
H       -0.62859374      -0.81157058      -0.47958940
H        0.12465048      -0.11475384      -0.45975471
H       -1.03912687      -0.49191850      -0.57736468
H       -0.46498591      -0.53327918      -0.13262220
H       -0.30599529       0.90535980      -0.46282136
H       -0.50629556       0.15087059      -0.75358963
H       -0.48860782       0.23785305      -0.02945078
