21
Properties=species:S:1:pos:R:3 pbc="F F F"
H        0.00000000       0.00000000       0.00000000
H       -0.04850490       0.68549418       0.68978679
H       -0.11629722       0.21783850      -0.94185042
H       -0.17679913       0.77405977      -0.08145446
H       -1.18349648       0.96881837      -0.12565379
H       -0.69359845      -0.74740851       0.11672930
H       -1.57288480       0.13708735       0.19785999
H       -0.23541963      -0.26884317       0.64116532
H       -0.94106567       0.49073559       1.15747070
H       -1.24056077      -0.35779816       0.45380896
H       -1.06846726       0.75624734       0.42641819
H       -1.29179621      -0.34089917      -0.51837945
H       -0.39701617      -0.15612820      -0.85496402
H       -1.59118867       0.27289709       0.46613336
H       -2.42949247       0.67253184       1.19666433
H       -2.87602091       1.52133095       1.02869606
H       -2.86840820       0.82401264       0.34082121
H       -2.77197957       1.34277773       1.89437270
H       -3.78106737       1.53822994       1.38739693
H       -0.72802317      -0.09896809      -0.53647643
H       -1.05699241       0.34587139       0.66279918
