21
Properties=species:S:1:pos:R:3 pbc="F F F"
H        0.00000000       0.00000000       0.00000000
H        0.21426670       0.05341591       1.00227761
H       -0.67176914       0.28302944       1.46654260
H       -0.02008849       0.93326354       1.34725094
H       -0.67476702      -0.46966103       0.52169806
H        0.48820138       0.63481176       0.50707734
H       -0.67854828      -0.22973071       0.73625082
H       -0.93852699       1.15110207       1.10834074
H       -1.32831395       0.39744139       0.63071895
H       -1.13304019       0.99143314       0.11335617
H       -0.30828083       0.62558103      -0.37577376
H       -0.22333479       1.29589438       0.57597572
H       -1.25077510       0.46591210      -0.00223100
H       -0.52726358      -0.00473672       0.09355941
H       -0.09480503       0.59127682      -0.23094523
H       -0.65134811       0.50912184       0.36119357
H        0.49505669      -0.08168858       0.19168597
H        0.65704125      -0.31169069       1.65404677
H        0.21088517       0.23227423       1.14492786
H        1.28628755       0.33010316       0.88300586
H        1.28628755       0.33010316       0.88300586
