16
Properties=species:S:1:pos:R:3 pbc="F F F"
H        0.00000000       0.00000000       0.00000000
H       -0.47398776      -0.23709527       0.75329894
H       -0.28247166       0.73098016       1.03521276
H        0.25995630       0.39877912       0.82436705
H       -1.31120682       0.34872559       0.65737212
H       -0.95390797       0.08453372      -0.26775706
H       -0.73317307       1.01363146      -0.45779508
H       -0.91425598       0.53750682       1.14600289
H       -1.51253915       1.03235734       0.28810376
H       -0.61942160       1.41647434       0.43137228
H       -0.08200112       1.30543602       0.91975707
H        0.14448279       0.99673247      -0.03649285
H       -1.16572797       1.01637185       1.14121819
H       -0.15233243       0.52880764      -0.35959977
H       -1.54216826       0.85590219       0.06730184
H       -0.60412192       0.03375956       0.41766304
