21
Properties=species:S:1:pos:R:3 pbc="F F F"
H        0.00000000       0.00000000       0.00000000
H        0.68725604      -0.43977645       0.53135377
H        0.65353304       0.51456094       0.72152191
H        1.53470659       0.66604173       1.10707033
H        1.51259458       0.07478449       0.59240633
H        1.94071281      -0.18275738       1.35758972
H        1.48121631      -0.79005992       1.03863549
H        0.03083535       0.92740691       0.43850824
H        1.34581780      -0.49806589       2.06096840
H        0.61881667       0.87673026      -0.33594045
H       -0.17896026      -0.05341591       1.00917983
H        1.45216274       0.89454269       0.26284239
H        0.83282936      -0.32832882      -0.21664104
H        0.51012170       0.57252491       1.43204379
H        1.37530792       0.40440288      -0.08564797
H        0.58091271      -0.44910240       1.49979496
H        0.53471369       1.21427047       0.45976570
H        1.29379892       0.49307775       1.89506221
H        0.82934171       0.52043515      -0.45328444
H        0.41310292       0.08371580       1.82536113
H        0.26939878       0.06501245      -0.33719632
