21
Properties=species:S:1:pos:R:3 pbc="F F F"
H        0.00000000       0.00000000       0.00000000
H        0.02715597      -1.02162731       0.09414954
H        0.55705303      -0.31530851      -0.73371208
H       -0.57465750      -0.46540600       0.71201861
H       -0.36788720      -0.06466493      -0.90611917
H        0.43233210      -1.26964593      -0.58624732
H       -0.93300098      -0.01689900      -0.27800080
H       -0.45892030      -1.61673641      -0.40387896
H       -0.26981658      -1.08487499      -1.23502135
H       -1.20370758      -0.56364465      -0.88411009
H       -1.13680482      -1.20926189      -0.70006043
H       -1.01506972      -1.29936743       0.12159371
H       -1.37930131      -0.65017700       0.19581223
H       -0.66319591      -0.38777477       0.43545279
H       -0.46525127      -1.20651221      -1.19188845
H        0.43278319      -1.12623441      -0.03293854
H        0.36466599      -0.78731632       0.03344744
H        0.53273851      -0.89082265      -1.68149781
H        0.53273851      -0.89082265      -1.68149781
H       -1.60952020      -0.94277167      -1.12478042
H       -0.94547892      -0.47711915      -1.03686368
