21
Properties=species:S:1:pos:R:3 pbc="F F F"
H        0.00000000       0.00000000       0.00000000
H        0.52691501       0.55577880      -0.60127473
H       -0.42082405       0.22342661      -0.81259578
H       -0.95577163       0.11800810      -0.14365099
H       -1.13996124       0.91261822      -0.67537439
H       -0.35512543       0.45036030       0.61929733
H        0.49482942       0.66740811       0.31242502
H        0.56644058       1.37202573      -0.50152415
H        0.00213653       1.39246392       0.42403245
H       -0.96140862       1.08623469       0.19960058
H       -0.31134486       1.11868167      -1.02073026
H       -0.58695191       1.70701718      -0.33414906
H        0.37395108       1.55553639      -0.37633774
H       -0.16471082       0.36257133      -0.62268752
H        1.20862567       0.80251259       0.78823668
H        0.48658884       0.66740811       0.32502547
H        0.65832281      -0.20905215       0.51208818
H        1.29068136       0.98674595       1.95514679
H        1.29068136       0.98674595       1.95514679
H        1.29068136       0.98674595       1.95514679
H        1.29068136       0.98674595       1.95514679
