21
Properties=species:S:1:pos:R:3 pbc="F F F"
H        0.00000000       0.00000000       0.00000000
H        0.41703188       0.87984765      -0.00365971
H        0.49101675      -0.19475858      -0.87994069
H       -0.39642259       0.43977645      -0.77298558
H        0.27846670       0.57984352      -1.43028140
H        0.98710734       1.22271109      -1.05896807
H       -0.18317142       1.24092615      -0.88445997
H        0.91965395       1.21219981      -0.83446479
H        1.07542205      -0.01872592      -0.08511234
H        0.14759147       0.83464956       0.82066673
H        0.14824116       0.80457801       0.81867903
H       -0.44617486       0.83464956       0.07992496
H        0.58561575       1.46447313      -0.54808509
H        1.35443199       0.33119297      -0.70326841
H        1.23612559       0.93561143       0.02201155
H        0.44422895       0.65152001       0.36841774
H        0.65984333       1.19572806      -0.68089598
H        0.75949550       1.20052505      -0.60429919
H        1.10491276       0.08197090      -0.74364889
H        1.10491276       0.08197090      -0.74364889
H        1.10491276       0.08197090      -0.74364889
