21
Properties=species:S:1:pos:R:3 pbc="F F F"
H        0.00000000       0.00000000       0.00000000
H        0.45279220       0.75366068      -0.41837266
H        0.87512219       0.00000000      -0.86747605
H        0.55782872       0.55577880       0.57271105
H        0.09311697      -0.25788200       0.83739966
H        1.21741700       0.87166876       0.17279896
H        1.24168444       0.18617457       0.86386311
H        1.09499979      -0.75592911       0.48406303
H        1.76110697      -0.03166392       0.06962919
H        0.04739838      -0.69765842      -0.03010678
H        1.08710253      -0.75366068      -0.28857988
H        1.70060754       0.46354809      -0.47121730
H        0.06596583      -0.43148959      -0.40660009
H        1.66506171      -0.54237497      -0.27076983
H        0.81982940       0.95859617      -0.29099220
H        1.64091969      -0.52595156      -0.43129605
H       -0.18695343       0.53470695      -1.78185236
H       -0.17224991       0.58302408      -1.76919365
H       -0.17224991       0.58302408      -1.76919365
H       -0.17224991       0.58302408      -1.76919365
H       -0.17224991       0.58302408      -1.76919365
