21
Properties=species:S:1:pos:R:3 pbc="F F F"
H        0.00000000       0.00000000       0.00000000
H        0.80713278      -0.08439321       0.53802919
H        0.98579526      -0.51588279      -0.37587470
H       -0.58002573       0.67024595       0.51736289
H       -0.51522660      -0.08341473       1.13043511
H        0.15568638       0.63815469       0.21112567
H       -0.07827479       0.78963548       1.14406538
H        0.04514056      -0.83707541       0.87344271
H        0.26320183      -0.80694109       1.02319670
H        0.94155115       0.44023958       1.09928966
H       -0.38603365       0.08648777      -0.28941494
H        0.06453705      -0.79902941      -0.51433837
H        0.17645025      -0.05480850       1.57138276
H        0.81579852       0.42242712       0.08086300
H        0.71094692      -0.98653162       0.30021930
H        1.17102516      -0.45444050       0.65183777
H       -0.51140743      -0.74561352       0.33345801
H        0.04924220       1.04710674       0.61158973
H        1.36813271       0.41968673      -0.00522840
H        0.44140920       0.31798071      -0.62663281
H       -0.09402600      -1.14339685       0.60754538
