21
Properties=species:S:1:pos:R:3 pbc="F F F"
H        0.00000000       0.00000000       0.00000000
H       -0.30729049       0.46966103      -0.79564559
H       -0.61762583      -0.14023903      -0.10298783
H       -1.14195943       0.20685145      -0.84640115
H       -0.18219602      -0.97197008      -0.36122283
H        0.13889664       0.00611293      -1.59524810
H       -0.47225744      -0.74754775      -1.51433349
H       -0.69382298      -1.30332661      -0.74616712
H        0.46149722      -0.79439902      -0.45746517
H        0.18365657      -0.80827856      -0.94182199
H        0.24232857       0.43148959      -0.89912045
H       -1.04857790      -0.60680938      -0.31981122
H       -0.76056361       0.15910918      -1.30717731
H       -1.09888995      -0.42203841      -1.27447832
H        0.37287688      -0.39716512      -0.67452395
H       -1.27585554      -0.48685420      -0.96510720
H       -0.12756646      -0.44093215      -0.16480345
H        0.09970379      -1.12854326      -1.17987657
H        1.22055578      -0.45416918      -1.45204020
H        1.21698308      -1.46009219      -1.65558362
H        1.88040233      -1.11525178      -1.72705507
