19
Properties=species:S:1:pos:R:3 pbc="F F F"
H        0.00000000       0.00000000       0.00000000
H        0.93511528      -0.39891118      -0.14054634
H        1.10254598      -0.76476324       0.80361629
H       -0.02078885      -0.76476324      -0.21619961
H        0.57126307      -1.43551445       0.46278024
H        0.52755398      -0.78166223       1.58921123
H       -0.23885863       0.29845181       0.95246881
H        0.70193499       0.08061332       1.07702661
H       -0.05241650      -0.00706011       1.48110580
H       -0.62495816      -0.44683656       0.82776546
H       -0.42768687      -1.24075592       0.59503770
H        0.13984022      -1.32388520       1.26885152
H        0.69734508       0.28658301       0.50877941
H        0.82295889      -1.09711540       0.26437896
H        1.15433156      -0.50802714       0.83713722
H       -0.04519922      -1.00305784       1.46637440
H       -0.58990967      -0.23881167       0.45670477
H       -0.04806553      -1.43500924       0.56055665
H        0.36474544       0.12902755      -0.19248725
