21
Properties=species:S:1:pos:R:3 pbc="F F F"
H        0.00000000       0.00000000       0.00000000
H        0.88791460       0.34709048      -0.19798161
H        0.49862403      -0.06227148       0.59507364
H        0.49862403       0.66027641       1.32394147
H        0.12193018       0.93291134      -0.54927313
H        1.15789318       0.43066287       0.57163453
H        0.99644458       1.30142784      -0.03822428
H       -0.17702118       0.15966894       0.99824500
H        0.19064307       1.64851832       0.38399953
H        0.72948247       1.42995548       0.87379003
H       -0.60196489       0.84851813       0.09641618
H       -0.18840519       1.54281139       0.14338464
H        0.68864787       1.26822484       0.93443286
H       -0.39072782       0.44559151       0.26548362
H       -0.00949758       1.06632590       1.31124663
H       -0.30811539       1.10068679       0.81844586
H        1.56917572       0.25465283       0.16394526
H        1.00104392       0.14940237      -0.48436296
H        1.25867128       1.10666931      -1.01117349
H        1.11437821       1.40617311      -0.56972289
H        1.31700945      -0.35673389       0.72677165
