21
Properties=species:S:1:pos:R:3 pbc="F F F"
H        0.00000000       0.00000000       0.00000000
H        0.05110265      -0.33235219      -0.96966726
H        0.56052577      -0.88857353      -0.27365732
H        0.94332147      -0.44879708       0.50616640
H        1.37598372      -0.51011932      -0.64763808
H        1.48753858       0.45795614      -0.96967745
H       -0.01294089       0.63587439      -0.73726326
H        1.20943928       0.26412514      -0.01273727
H        0.26231647       0.38634041       0.45226952
H        0.36470068       0.78456032      -0.43663707
H        0.93009478      -0.63792992      -1.13890719
H       -0.06733763      -0.28912812       0.42617965
H        0.59275854       0.64272714      -1.30626202
H        0.96794474      -0.44225711      -1.41701317
H        0.99905670      -0.03773847      -1.48912656
H        0.18131438      -0.28467977      -1.46103275
H        1.52990341      -0.68589234      -0.16319549
H        0.70742017       0.68150312      -0.66048980
H        0.04260214      -0.66758233      -0.46418357
H        0.17003685      -0.71663845       0.08352038
H        1.33148122       0.35412094       0.27596527
