21
Properties=species:S:1:pos:R:3 pbc="F F F"
H        0.00000000       0.00000000       0.00000000
H        0.24483983      -0.86484438      -0.37437752
H       -0.08766787       0.22961354      -0.99645162
H        1.23892736      -0.48023063      -0.20707750
H        0.86935842      -0.73087418      -1.07232738
H        0.95130181       0.33235219       0.19465564
H       -0.04381435      -0.56639254      -1.31295574
H        0.81277591       0.24742600      -1.48859763
H        0.71273386       0.90850866      -0.78076833
H        1.41141653       0.01481745      -1.08940327
H        0.55082631       0.94706678      -0.52302760
H        0.91324812      -0.31530851       0.12091088
H       -0.38865000      -0.10284445      -0.46470141
H        0.67533737      -0.06741282      -1.73945427
H        1.76916289      -0.24754313      -0.33003032
H        1.78139663      -0.17873934      -0.37997365
H        1.66694951       0.13759361      -0.51473945
H        0.40669316       0.56958312       0.75379366
H        0.39243710       0.48716030       0.76843011
H        1.61067724       0.72458524       0.60151237
H        0.97720200       0.15745401       0.77822220
