21
Properties=species:S:1:pos:R:3 pbc="F F F"
H        0.00000000       0.00000000       0.00000000
H        0.05739931      -0.52769721       0.81627315
H        0.63880807       0.79439902      -0.11907271
H        0.08323631       1.00592303       0.18578057
H       -0.30533844       0.32042885       0.75776672
H        0.86531985       1.22588861       0.78416204
H        0.17241457       0.08701736       1.63004303
H        1.01706707      -0.40331030       1.15816426
H        1.36250043       0.41222781       0.98121166
H        0.14688721       1.01611507       1.33989358
H        0.86411303      -0.35263366       0.19790500
H        1.28382409       0.20616437       0.08696020
H        1.18521690       0.74372238       0.68524706
H        0.87366432       0.47653735       1.54978228
H        0.38351607       1.12393117       1.10445726
H        0.78906852       0.49616545      -0.27323121
H        0.50372678      -0.35551834       1.29708409
H       -0.79334527       0.36376590       0.85762286
H       -0.79334527      -0.27910167       1.65765119
H       -0.04543251      -0.22842503       2.27903628
H        0.50826448       0.23512307       1.54974449
