21
Properties=species:S:1:pos:R:3 pbc="F F F"
H        0.00000000       0.00000000       0.00000000
H        0.36925858       0.05341591      -0.95609558
H        0.16182481      -0.81647241      -0.60042441
H       -0.94334078       0.11800810      -0.21034038
H       -0.38170415       0.14237091      -1.64997315
H       -0.46958810       0.64135063      -0.81849462
H       -1.25090122       0.37198445      -1.15489948
H       -0.52882987      -0.63170147       0.06057239
H       -0.11439565       0.20157418      -0.02571732
H        0.10219537      -1.16083992      -1.73188794
H        0.10219537      -1.16083992      -1.73188794
H       -1.31626415      -0.44448796      -0.53649479
H       -0.18959795      -0.30319750      -2.21420527
H        0.06252402      -1.16083992      -1.72909832
H        1.20635653      -0.67577577      -2.12834692
H        1.20635653      -0.67577577      -2.12834692
H        1.20635653      -0.67577577      -2.12834692
H        1.20635653      -0.67577577      -2.12834692
H        1.20635653      -0.67577577      -2.12834692
H        1.20635653      -0.67577577      -2.12834692
H        1.20635653      -0.67577577      -2.12834692
