21
Properties=species:S:1:pos:R:3 pbc="F F F"
H        0.00000000       0.00000000       0.00000000
H        0.97460508       0.08895500       0.30912116
H       -1.01109707       0.08895500      -0.15196633
H        0.26098406       0.60990006       0.71272027
H       -0.45288688      -0.55391258       0.42113632
H       -0.54705310       0.68549418       0.42295563
H        0.37762994      -0.20930980      -0.32569906
H        0.05968404       0.68537027      -0.71529102
H       -0.12829775       0.06931563      -0.85960352
H        0.54429567      -0.32429904       0.34221610
H       -0.31137639      -1.10557950      -0.30272573
H       -0.17058627       0.93790644       0.08305484
H       -1.00607455      -0.54980069       0.09295759
H        0.35508263       1.59202719      -0.51838040
H        0.61216992      -0.82243288      -0.18045139
H        0.13511105       1.41724384       0.35877472
H        0.22635278       1.02498090      -0.97897971
H       -0.32431728      -0.46970510      -1.03998899
H       -0.67140579      -0.63875568      -0.87317276
H        1.01035368       0.77133870       0.67058849
H        0.84893739       0.78915113      -0.34279752
