21
Properties=species:S:1:pos:R:3 pbc="F F F"
H        0.00000000       0.00000000       0.00000000
H       -0.19310522      -0.77460212      -0.55746114
H       -0.54648191      -0.40936196       0.69414788
H       -0.01220764      -0.97334045       0.02280879
H       -0.69813114       0.31530851      -0.60104442
H       -1.06476033       0.29840952       0.30081940
H       -1.18541217      -1.07044458       0.37352517
H       -0.74807554      -1.30569267      -0.61072451
H       -1.21701896      -0.43835217      -0.93392861
H       -1.11338007      -1.22129941       0.28788072
H       -1.63730192      -0.14136693      -0.35252094
H       -1.51487350      -0.91035998      -0.20124233
H       -0.20568150      -0.47909051      -1.02501070
H       -0.28194028      -0.06669709       0.21112566
H       -1.45899296      -0.61102796       0.48155659
H       -1.51442742      -1.03140748      -1.12393785
H       -0.90207142      -1.37671590      -0.54806912
H       -1.58661234       0.28624719      -0.87172782
H       -0.30171859      -1.12962151      -1.22398794
H       -1.58133888       0.28624719      -0.84595585
H       -1.41000068       0.30341810      -0.03121650
