21
Properties=species:S:1:pos:R:3 pbc="F F F"
H        0.00000000       0.00000000       0.00000000
H        0.12529835      -0.08895500      -1.01474690
H        0.32797325       0.86938608      -0.56238353
H       -0.72150123       0.19419162      -1.40310144
H       -0.15017474       1.03175354      -1.24372840
H       -0.45342803       1.33904707      -0.22048959
H       -0.44940102      -0.58319080      -0.63717198
H       -1.48340845       0.65773970      -0.89521933
H       -1.20342565       0.64223033      -0.14786701
H       -1.14341402       0.87208462      -1.04049146
H       -0.31777680       0.50675881       0.14995983
H       -0.70197707       1.33020532      -0.43146950
H       -1.16064191      -0.08814272      -0.08727407
H       -0.87188423      -0.31856853      -1.09366703
H       -0.69164622       0.00000000       0.10395330
H       -0.01422474       0.17512453      -1.20060837
H        1.08374453       1.28827298      -0.64897805
H        1.58421636       1.52061355      -0.61819643
H        1.86424875       1.52550387      -0.65582746
H        1.86424875       1.52550387      -0.65582746
H       -0.92126125      -0.17982227      -1.08443940
