21
Properties=species:S:1:pos:R:3 pbc="F F F"
H        0.00000000       0.00000000       0.00000000
H        0.63848275      -0.52769721      -0.51179713
H        0.29946822       0.12438690      -0.97374046
H       -0.86782366      -0.46354809      -0.29211155
H       -0.85075873      -0.51422471      -1.26432633
H       -0.25325817      -1.21720874      -0.34075022
H       -0.73287719       0.28386042      -0.98239696
H        0.36005735      -1.30160201      -1.09227061
H        0.08248306      -1.01761651       0.10477103
H       -0.78911531      -1.19535935      -0.92954254
H        0.03994852      -0.60478526      -1.77440023
H        0.69013834       0.00992930      -1.27170432
H       -0.64872873      -1.31941450      -1.28030634
H       -0.47547531       0.43977645      -0.72703558
H       -0.40155300       0.12794644      -1.43305206
H        0.42893764      -1.00315022      -0.11272693
H        0.75594020      -0.62259769      -1.03930664
H       -0.73414695      -1.02078998      -1.49862134
H       -0.28972310      -1.28002048      -0.06299055
H        0.26183265      -0.76958096      -2.59766483
H       -0.17644581      -0.44576699      -1.25679517
