21
Properties=species:S:1:pos:R:3 pbc="F F F"
H        0.00000000       0.00000000       0.00000000
H        0.12256700       0.83228827       0.37498182
H       -0.28404403       0.05341591       0.98477906
H        0.99379861      -0.22961354      -0.11386718
H        0.43220919      -0.37807369       1.57986057
H        0.38331690       0.58164465       1.27899957
H        1.51703715       0.38624948       0.60101843
H        1.54796600       0.91220105       1.48178077
H        0.48071980      -0.66938996       0.58713758
H        0.06839141      -0.87399101       0.72204435
H        0.66477287       0.62534839      -0.12391251
H        1.08532238      -0.34556174       1.07655561
H        0.60785466       0.93001348       1.89311671
H        1.02321267       0.88522923       1.27571654
H        0.81645691       1.06512487       0.73145258
H       -0.15029836       0.28377509       1.47874105
H        1.48960495       0.19385880       0.30828282
H       -0.28141844       0.39515024       1.32261777
H        1.00744474       1.98185110       1.52390194
H        1.86033583       2.45151210       1.51641726
H        1.72190881       1.51830304       0.95119947
