21
Properties=species:S:1:pos:R:3 pbc="F F F"
H        0.00000000       0.00000000       0.00000000
H       -0.51304650      -0.77136850      -0.44169885
H       -0.30282402      -1.62016761      -0.01343781
H        0.55619961      -1.16655040      -0.48294517
H        0.68100828      -0.36585209      -0.67505842
H       -0.61463648      -0.88937658       0.51945376
H        0.59496504      -0.15148079       0.75573212
H        0.93631136      -0.68116057       0.21007538
H        0.43102074      -1.51289153       0.24115327
H       -0.24915344      -0.49504808       0.86381352
H        0.50877392      -1.07823884       1.04683137
H        0.70782006      -0.13549526      -0.15824056
H        0.11270386      -1.28828776       1.12374663
H        0.40723068      -1.10372066      -0.75146633
H       -0.72255433      -0.67024595       0.28637302
H        0.22370476      -0.56832993      -0.15040193
H        0.26512676      -0.31228602       0.23506317
H       -0.49985671      -2.72285843      -0.39763242
H       -0.51720047      -2.70721030      -0.43145108
H       -0.49985671      -2.72285843      -0.39763242
H       -0.51720047      -2.70721030      -0.43145108
