21
Properties=species:S:1:pos:R:3 pbc="F F F"
H        0.00000000       0.00000000       0.00000000
H       -0.93989587      -0.24138860      -0.47165081
H       -0.26206529       0.39891118       0.90857893
H       -0.44618729      -0.46354809      -0.79960239
H        0.35919645      -0.19935623      -0.22091120
H       -0.21686795      -0.62549597       0.95183539
H       -0.88007534      -1.28002048      -0.35413876
H       -0.91037953      -0.91722375       0.36888650
H        0.33445260      -0.60990006       0.68134004
H       -0.44737524      -1.57847226       0.52734923
H       -0.59725583      -0.09809597       0.37120309
H        0.22134942       0.60365736      -0.03403258
H        1.05069113       0.08322221      -0.48731703
H        0.79304755       0.85456991      -0.18269011
H        1.10399866       0.67978656       0.66648483
H        0.92206442      -0.27455080       0.73130065
H        0.11161554      -1.54421234      -0.36284146
H        0.14833796       0.49501559       0.69164956
H        0.52830058      -1.14530110       0.48602095
H        0.21626371       0.88585001       0.53305960
H       -0.01746166      -1.06218195      -0.74974579
