21
Properties=species:S:1:pos:R:3 pbc="F F F"
H        0.00000000       0.00000000       0.00000000
H        0.36038706      -0.22961354      -0.93312520
H       -0.63421392      -0.69681674      -0.40686983
H       -0.33284262      -0.61242354       0.51514643
H       -1.04711020      -1.05219996       0.02069795
H       -0.51887852      -1.82356846      -0.40272373
H       -0.50748718       0.21016291      -0.97122949
H        0.85210317      -0.46966103      -0.03741178
H       -0.62108427      -1.77289188       0.56425446
H       -0.36460716       0.73786008      -0.16551125
H        0.36619210      -1.42465734      -0.73565596
H        0.09209692      -2.10524416      -0.09471339
H        0.08787572       0.37200800       0.67990905
H       -0.09669963      -1.12429357      -1.14275169
H        0.20021242      -1.36352992       0.88976240
H       -0.36414868      -1.77273393      -0.54581463
H        0.18099862      -0.31818023       0.65159696
H       -1.43237376       0.06481016       0.09953071
H       -1.43237376       0.06481016       0.09953071
H       -1.43237376       0.06481016       0.09953071
H       -0.55790317      -0.66110313      -0.77858132
