21
Properties=species:S:1:pos:R:3 pbc="F F F"
H        0.00000000       0.00000000       0.00000000
H       -0.39122835      -0.01598554      -0.83368021
H        0.87007266       0.49504808      -0.22632901
H        0.61469579       1.48443091      -0.32239273
H       -0.02034968       1.02595341       0.01815121
H        0.26395079       1.50132990      -1.23055208
H       -0.65966153       1.11034667      -0.71138221
H       -0.19317725       0.79224998      -1.71665967
H       -0.21542877       0.65426040      -1.59077251
H        0.62546045      -0.21783850      -0.71372718
H        1.08868277       0.61305618      -1.16778767
H        0.31063536      -0.06635770      -1.62257242
H        0.44164366       1.24893057      -1.52143300
H        0.26380724       0.08710462      -1.47807658
H        0.39677137      -0.27698439      -0.80524004
H       -0.18729556       0.45677519      -1.26877260
H       -0.18504131       0.41244650      -1.17896521
H       -0.17497277       0.36835951      -1.09006655
H        1.13527310       1.66829872      -0.80929822
H        1.13527310       1.66829872      -0.80929822
H        1.13527310       1.66829872      -0.80929822
