15
Properties=species:S:1:pos:R:3 pbc="F F F"
H        0.00000000       0.00000000       0.00000000
H       -0.77018702      -0.01689900       0.59547228
H       -0.54868925      -0.71371573      -0.12474227
H       -1.24153471      -0.92849165       0.60788393
H       -0.64052498      -1.45618892       0.05256069
H       -0.06458062      -1.40277302       0.90035719
H       -0.16459686      -0.89468008      -0.47516248
H        0.35788906      -1.22657537       0.11396831
H        0.77926183      -0.46354809       0.48083067
H        0.05011264      -0.49118036       1.35770619
H       -0.73740590      -0.55003744       1.34996724
H       -0.85176402      -1.03766644       0.86579567
H        0.23595366      -0.08439321       0.94088495
H        0.58667797      -0.84917760       0.70023108
H       -0.28731221       0.26248032       0.84175956
