15
Properties=species:S:1:pos:R:3 pbc="F F F"
H        0.00000000       0.00000000       0.00000000
H       -0.81573808      -0.52769721      -0.06456009
H       -0.39531651       0.37845421       0.80533117
H        0.40157196       0.81647241       0.47480175
H       -0.36123535       1.08066428       1.10856152
H       -1.14019608       0.49747348       1.07436097
H       -0.61922020      -0.29692554       0.68598211
H       -0.03436816       0.83428484      -0.45415613
H       -1.44172835       0.81278199       0.20388991
H       -0.32562813       1.45933998       0.14129728
H       -1.20937335       1.27542281       0.56445211
H       -1.00223589       1.14403152      -0.48387748
H       -0.85045934       0.43432778      -0.47082061
H       -0.99672806      -0.00087881       0.50052404
H       -1.41102314      -0.32295102       0.81170583
