21
Properties=species:S:1:pos:R:3 pbc="F F F"
H        0.00000000       0.00000000       0.00000000
H        0.30968034       0.89379078      -0.23086154
H       -0.15690058       0.80483580      -1.14064896
H        0.84270966      -0.05341591      -0.58336192
H        0.28188920      -0.92909771      -0.07332687
H        1.73513961      -0.48490548      -0.84927422
H        1.18590569      -1.27951562      -0.97173905
H        1.70096219      -1.22609973      -0.08563095
H        0.25840664      -0.52307695      -1.20470667
H       -0.73783344      -0.39891118      -0.59143531
H       -0.26412207       0.28658301      -1.09517741
H        1.13443971       0.52793872      -0.71999145
H        0.62731600       0.27713859      -1.37431753
H        1.45079398      -0.92468190      -1.67013049
H       -0.75379890      -0.05182070      -1.50101447
H        0.17763138      -1.19056058      -0.80205131
H        0.57331449      -0.42963383      -1.86578548
H        1.01067138      -0.94691014      -0.79574174
H        0.05204159      -1.01545465      -1.20365834
H        0.08422473      -1.20100236      -1.39769816
H       -0.59581691       0.43024269      -0.36695638
