12
Properties=species:S:1:pos:R:3 pbc="F F F"
H        0.00000000       0.00000000       0.00000000
H       -0.58002573       0.67024595       0.51736289
H       -0.03599161       1.25343680       1.07591128
H        0.21462035       0.29179174       0.93374133
H       -0.54095989       0.75366068      -0.29566675
H       -0.58486116       1.54912210       0.24187943
H        0.36960840       0.50301707      -0.53252977
H        1.03628445       1.08883786      -0.01708740
H        0.84651405       1.04737341       0.91141379
H        0.86307502       0.20456526       0.31643492
H        0.20363545       1.37198448      -0.43492049
H        0.45671135       1.78565454       0.46443665
