15
Properties=species:S:1:pos:R:3 pbc="F F F"
H        0.00000000       0.00000000       0.00000000
H        0.15607943       0.96046287      -0.03480161
H       -0.57518905      -0.34709048      -0.70480251
H       -0.80206609       1.07847095       0.09205345
H       -0.21303892       1.36161757      -0.62970537
H       -1.18682265       0.21362656      -0.13612941
H        0.35261387       0.20606343      -0.82555383
H        0.10032600       1.12449408      -1.02778363
H       -0.98480010       0.86263788      -0.95136493
H       -0.70270169       0.71513212      -1.39606369
H       -0.48985434       0.35056281       0.36376134
H       -0.96821249       0.09561846      -1.07758808
H       -0.63512731      -0.38124841      -0.26186565
H       -0.43948072       0.50432825      -1.18881989
H        0.59196764       0.43472618      -0.65281475
