21
Properties=species:S:1:pos:R:3 pbc="F F F"
H        0.00000000       0.00000000       0.00000000
H        0.65604281      -0.46966103       0.54505712
H       -0.04546368      -0.80201322       1.21643972
H        0.99079561      -0.48656002       1.45923209
H       -0.70969975      -0.46966103       0.47308099
H        1.03810978       0.00848806       0.56145000
H       -0.92422509      -0.48747349       1.47656763
H        0.31094837       0.43699589       0.62838751
H       -0.94599086       0.52859330       0.50436509
H       -0.07486671      -0.12162140       1.92161417
H       -0.64491045       1.08437204       1.24498725
H       -1.43021631       0.54640573       1.40909290
H        0.32013929       0.71010959       1.60498393
H       -0.61864400       0.40631729       1.71282840
H        0.64594346       1.01316190       0.53041273
H       -0.06130689       0.90704751       0.65325302
H       -0.12992108       0.02961358       0.32240298
H        0.98379588       0.63470769       1.36148977
H       -1.27928638      -0.16267419       0.75910306
H       -1.09939790      -0.26725507       1.82930267
H        0.26796043      -0.04678357       1.94106901
