21
Properties=species:S:1:pos:R:3 pbc="F F F"
H        0.00000000       0.00000000       0.00000000
H        0.15274149      -0.33235219      -0.95892441
H        0.45013765       0.81366080      -0.28877872
H       -0.71599835       0.01704371      -0.42288256
H       -0.53008658       0.79461014       0.18884842
H        0.65491068       0.18477097      -0.69642842
H       -0.17206818       1.44305062      -0.35858709
H        0.61039591       1.09596014      -0.82263350
H       -0.55999815       0.28123558      -1.40226531
H       -0.91936547       0.94407094      -0.73358965
H        0.47789562       0.37672773      -1.54162621
H       -0.20892841       1.18789244      -1.45503056
H       -0.47008687       1.28338170      -1.32761478
H        0.66853005       1.22521210       0.08186939
H       -0.32983881       1.73630357      -0.06818390
H        0.47493970       0.42804736       0.36683646
H       -0.57235754       0.89874160       0.47310942
H        0.96526027       1.25211322      -0.23397312
H        1.00458467       1.22470284      -0.23755345
H        0.93465394       1.02955008      -0.15775391
H        0.38414305       1.89997947      -1.66210771
