21
Properties=species:S:1:pos:R:3 pbc="F F F"
H        0.00000000       0.00000000       0.00000000
H        0.13252793       0.60990006       0.74734145
H       -0.31758177       0.92740691       0.30394426
H       -0.49007088       0.43235883      -0.57838154
H       -0.71256775       1.34395146      -0.16266793
H        0.89257252       0.29845181      -0.40934658
H        0.27612090       0.73081064      -1.19254804
H        0.77677053       1.48447132      -0.83281702
H        0.12240911       1.18601954      -0.64855808
H        1.06653345       0.89865047      -0.04150468
H        0.20263112       1.45537782       0.38874587
H        0.92303765       1.21398926      -0.37733057
H        0.23878489       0.07983141      -0.88597208
H        0.92141396       1.10494816       0.31616846
H        0.72012579      -0.03296751       0.20441055
H        0.34602010       0.89443940       0.43524641
H        1.32944250       0.38644317      -0.77508074
H        1.07564807       0.43782863      -0.74513215
H       -0.45270002      -0.75387770      -1.36464930
H       -0.45270002      -0.75387770      -1.36464930
H       -0.40620565      -1.16323972      -2.24687481
