21
Properties=species:S:1:pos:R:3 pbc="F F F"
H        0.00000000       0.00000000       0.00000000
H       -0.67230010      -0.60990006       0.35227177
H       -0.65141052       0.38835424       0.11483586
H        0.30567592      -0.87409192       0.51686031
H       -1.00419509      -0.08394849       1.16869354
H        0.86147153      -0.05761951       0.23795539
H       -0.18355697      -0.85719293       1.35854101
H       -0.43107951       0.66971219       1.39583886
H        0.11318052       0.49815929      -0.04352519
H        0.69422066       0.58524805       1.02030587
H        0.66697812      -0.55892813       1.16889405
H       -0.14163160       0.37959960       1.47599030
H       -0.20746350       0.11088252       1.69851494
H       -0.75477380       0.22238821       0.73805940
H        0.05138597       0.28440267       1.56810188
H       -0.59547102      -1.92727780       1.65451288
H        1.87029707       0.48260766       0.92722744
H       -0.00576842      -0.12743855       1.81275177
H        0.27008003       1.15645742       1.96697307
H       -0.39766788       0.43390954       2.25913930
H       -0.49701118       0.95434469       3.19903564
