21
Properties=species:S:1:pos:R:3 pbc="F F F"
H        0.00000000       0.00000000       0.00000000
H       -0.49101692      -0.19475858      -0.87994057
H        0.05128950       0.47548735      -0.32316595
H       -1.26618576       0.08838804      -0.36321831
H       -1.20707440       0.67420888       0.47740269
H       -0.80707061       0.68508905      -1.15204179
H       -0.05849612       0.69992149      -1.13645041
H       -1.26130605       1.15475011      -0.43013483
H       -0.45372182       1.50414598       0.19425094
H       -0.68038374      -0.12040126       0.27928028
H        0.34627563       0.86127841       0.18723047
H       -0.17270181       1.31937504      -0.71950412
H       -0.47718805       1.43789673      -0.93317342
H       -0.59270304       0.80786252       0.59807074
H       -1.26542878       0.91832513       0.42067897
H        0.70007128       1.23920727       0.22463301
H        0.67279458       0.56896132       1.00138927
H       -0.24942648      -0.17280895       0.96089888
H       -0.29373789       0.68382007       1.09646523
H       -0.76927805       1.52138209       0.74195814
H        0.58865243      -0.34946930       0.68919355
