6
Properties=species:S:1:pos:R:3 pbc="F F F"
H        0.00000000       0.00000000       0.00000000
H       -0.93989587      -0.24138860      -0.47165081
H       -0.47520259       0.39891118       0.81754285
H       -0.68435460      -0.58582085       0.49172816
H       -1.36505389       0.16158766       0.31466025
H       -0.59553885       0.69736302      -0.15701836
