6
Properties=species:S:1:pos:R:3 pbc="F F F"
H        0.00000000       0.00000000       0.00000000
H        0.36038706      -0.22961354      -0.93312520
H       -0.39293563      -0.79439902      -0.51754773
H        0.12490946      -0.84507567       0.30545247
H        0.77773857      -0.23517561      -0.08171290
H        0.44035244      -1.11186504      -0.49512583
