21
Properties=species:S:1:pos:R:3 pbc="F F F"
H        0.00000000       0.00000000       0.00000000
H       -0.33764970       0.29845181       0.92208624
H       -0.86456466      -0.25732699       0.32081145
H       -1.23909974       0.56264365       0.50866830
H       -0.82149959       0.27037022      -0.49634337
H       -0.24391556       0.82614899       0.05643821
H       -1.14075637       0.57550538       0.34089434
H        0.66526985       0.03351310       1.49332523
H        0.67265558       0.07373038       1.49753201
H        0.66526985       0.03351310       1.49332523
H        0.67265558       0.07373038       1.49753201
H        0.66526985       0.03351310       1.49332523
H        0.67265558       0.07373038       1.49753201
H        0.66526985       0.03351310       1.49332523
H        0.67265558       0.07373038       1.49753201
H        0.66526985       0.03351310       1.49332523
H        0.67265558       0.07373038       1.49753201
H        0.67265558       0.07373038       1.49753201
H        0.67265558       0.07373038       1.49753201
H        0.67265558       0.07373038       1.49753201
H        0.66526985       0.03351310       1.49332523
