21
Properties=species:S:1:pos:R:3 pbc="F F F"
H        0.00000000       0.00000000       0.00000000
H        0.65604281      -0.46966103       0.54505712
H       -0.25683582      -0.76811284       0.90686214
H        0.20228499      -0.90115058      -0.26811230
H        0.61399406      -0.28314662      -0.70064265
H        1.22279882      -0.86896747      -0.11798108
H        1.00605989       0.08270547       0.17443478
H       -0.28308445       0.18755245       1.28014314
H        0.47950441      -0.45531511       1.52201796
H        0.65682650       0.45174432       0.96376693
H       -0.05126095       0.13413654       0.28178024
H       -0.84812576      -1.60567474       0.86006558
H       -1.12999856      -1.23982263      -0.05646259
H       -0.16799140      -1.35783076       0.03668893
H       -0.66251308      -0.34514254       0.12881787
H       -0.60222536       0.47399825       0.41082633
H       -0.56413972       0.46349740       0.42978162
H       -1.51974487      -0.62288272      -0.46459699
H       -1.51974487      -0.62288272      -0.46459699
H       -1.51974487      -0.62288272      -0.46459699
H       -1.51974487      -0.62288272      -0.46459699
