21
Properties=species:S:1:pos:R:3 pbc="F F F"
H        0.00000000       0.00000000       0.00000000
H        0.13252793       0.60990006       0.74734145
H       -0.30690819       0.97931916       0.00808159
H        0.40350783       0.74970561      -0.69612753
H        0.52684253       1.27565718       0.17650491
H        0.93210334       0.36585209       0.22507633
H        0.96201015       0.35079443       0.06693792
H        0.83327007       0.57880145       0.46977389
H       -1.08400571      -0.46028212      -0.12420309
H       -1.08400571      -0.46028212      -0.12420309
H       -1.08400571      -0.46028212      -0.12420309
H       -1.08400571      -0.46028212      -0.12420309
H       -1.08400571      -0.46028212      -0.12420309
H       -1.08400571      -0.46028212      -0.12420309
H       -1.08400571      -0.46028212      -0.12420309
H       -1.08400571      -0.46028212      -0.12420309
H       -1.08400571      -0.46028212      -0.12420309
H       -1.08400571      -0.46028212      -0.12420309
H       -1.08400571      -0.46028212      -0.12420309
H       -1.08400571      -0.46028212      -0.12420309
H       -1.08400571      -0.46028212      -0.12420309
