21
Properties=species:S:1:pos:R:3 pbc="F F F"
H        0.00000000       0.00000000       0.00000000
H        0.79402828      -0.31375703       0.65969908
H        0.94661361      -0.22936383      -0.29824477
H        0.03542244      -0.98400295       0.49054980
H        0.23298568      -0.86523819      -0.48387831
H        1.00113177      -1.17876148       0.20280287
H        0.00000000      -0.84879911       0.47707549
H        0.37791014      -0.80360442      -1.65757012
H        0.37791014      -0.80360442      -1.65757012
H        0.37791014      -0.80360442      -1.65757012
H        0.37791014      -0.80360442      -1.65757012
H        0.41901094      -0.80360442      -1.65176105
H        0.37791014      -0.80360442      -1.65757012
H        0.41901094      -0.80360442      -1.65176105
H        0.37791014      -0.80360442      -1.65757012
H        0.41901094      -0.80360442      -1.65176105
H        0.37791014      -0.80360442      -1.65757012
H        0.41901094      -0.80360442      -1.65176105
H        0.37791014      -0.80360442      -1.65757012
H        0.41901094      -0.80360442      -1.65176105
H        0.37791014      -0.80360442      -1.65757012
