21
Properties=species:S:1:pos:R:3 pbc="F F F"
H        0.00000000       0.00000000       0.00000000
H        0.35866648      -0.83756196      -0.47241095
H        1.13373291      -1.03232050       0.17153403
H        0.24796228      -0.79461014       0.50514376
H        0.93300092      -0.01689900      -0.27800098
H        0.76321810      -0.06757563       0.67942607
H        0.98729509      -0.23771036      -0.37179968
H       -0.37516421      -1.35083151       1.10151207
H       -0.93429846      -0.57622939       0.91330612
H       -0.66433442      -1.76019347       0.26672804
H       -0.85957575      -0.93146336       0.23340887
H        0.02621228      -0.38147080       1.21795690
H        0.33736372      -1.84914851       0.47169578
H        0.12171030      -0.80707645       0.50714129
H       -0.48191330       0.11186302      -0.07243083
H       -0.48191330       0.11186302      -0.07243083
H        0.25395781      -0.88725990       0.97577351
H        0.20554006      -0.90910262       0.98175859
H        0.28177470      -0.89849275       1.40158582
H       -1.00539613      -0.25070506       1.50572705
H       -1.01485991      -0.25070506       1.46934581
