6
Properties=species:S:1:pos:R:3 pbc="F F F"
H        0.00000000       0.00000000       0.00000000
H        0.87747955       0.49504808      -0.19565487
H        0.79447240      -0.34251389       0.39164710
H        0.39225918      -0.84879911      -0.27153963
H        1.27434313      -0.41654459      -0.45025647
H        0.43915945      -0.08419240      -0.94556862
