21
Properties=species:S:1:pos:R:3 pbc="F F F"
H        0.00000000       0.00000000       0.00000000
H       -0.67230010      -0.60990006       0.35227177
H       -0.84033084       0.40247959       0.33897328
H        0.19049197      -0.45023113       0.88464344
H        0.05767947       0.56214851       0.80951250
H       -0.71220738      -0.11787894       1.24241412
H        0.01916152       0.40981826       0.87540448
H       -1.82987738      -0.00089583      -0.03325906
H       -1.82987738      -0.00089583      -0.03325906
H       -1.82987738      -0.00089583      -0.03325906
H       -1.82987738      -0.00089583      -0.03325906
H       -1.82987738      -0.00089583      -0.03325906
H       -1.82987738      -0.00089583      -0.03325906
H       -1.82987738      -0.00089583      -0.03325906
H       -1.82987738      -0.00089583      -0.03325906
H       -1.82987738      -0.00089583      -0.03325906
H       -1.82987738      -0.00089583      -0.03325906
H       -1.82987738      -0.00089583      -0.03325906
H       -1.82987738      -0.00089583      -0.03325906
H       -1.82987738      -0.00089583      -0.03325906
H       -1.82987738      -0.00089583      -0.03325906
