21
Properties=species:S:1:pos:R:3 pbc="F F F"
H        0.00000000       0.00000000       0.00000000
H       -0.51304650      -0.77136850      -0.44169885
H       -0.25949803      -1.40724289       0.25071561
H        0.27514079      -0.64764124       0.79961807
H        0.53914428      -0.83756196      -0.24725932
H       -0.84775829      -0.63587439       0.58577454
H       -0.70548022      -0.43977645       0.50690752
H       -0.08946788      -1.33673501       0.20441630
H       -0.01443049      -0.39584225      -0.64951509
H       -0.01443049      -0.39584225      -0.64951509
H        1.35527503      -0.24711424       0.34943303
H        2.22226334      -0.37150115       0.88439381
H        1.50764930       0.47543365       1.06219566
H        2.04671812       0.50029427       0.22054926
H        1.35527503      -0.24711424       0.34943303
H        1.61107230      -0.48850286       1.36944604
H        1.35527503      -0.24711424       0.34943303
H        1.35527503      -0.24711424       0.34943303
H        1.35527503      -0.24711424       0.34943303
H        1.35527503      -0.24711424       0.34943303
H        1.35527503      -0.24711424       0.34943303
