6
Properties=species:S:1:pos:R:3 pbc="F F F"
H        0.00000000       0.00000000       0.00000000
H        0.50912565      -0.18477097       0.80914259
H       -0.35096794       0.14758122       1.25981426
H       -0.76455224       0.16448022       0.37849516
H        0.06454253       0.63414127       0.57869786
H       -0.41392624      -0.67024595       0.65784448
