6
Properties=species:S:1:pos:R:3 pbc="F F F"
H        0.00000000       0.00000000       0.00000000
H        1.00909960       0.15966894       0.09771150
H        0.48666692      -0.51057702       0.67317510
H        0.85240304       0.32115400       1.02320576
H       -0.14191711       0.19850290       0.89711416
H        0.36472762       0.90707743       0.37964973
