21
Properties=species:S:1:pos:R:3 pbc="F F F"
H        0.00000000       0.00000000       0.00000000
H        0.19410905      -0.89379078       0.33394706
H       -0.92314816      -0.43148959       0.12222154
H       -0.21744889      -0.86297917      -0.48533845
H       -0.53029573      -0.43024269       0.89402264
H       -0.69718456      -1.27224493       0.23182452
H        0.01333946       0.06480539       0.17798358
H        0.01602659      -0.24479985      -0.12714928
H       -0.19065034      -0.30457324      -0.21371248
H       -0.52428567      -0.05403721       0.88937598
H       -0.54333580      -0.05403721       0.86382198
H       -0.56655955      -0.08605850       0.88050896
H       -0.16938534      -0.35166281       1.44602239
H       -1.03104532      -0.05321100       0.97507399
H       -0.99414468       0.01418927       0.95689249
H       -0.91596401       0.07982677       0.88946062
H       -0.39104152      -0.15944570       0.59684199
H       -0.57897747      -0.44582653       1.01046419
H       -0.52873302      -0.46652043       0.97271442
H       -0.26171225      -1.22242570       2.31953597
H       -0.26171225      -1.22242570       2.31953597
