6
Properties=species:S:1:pos:R:3 pbc="F F F"
H        0.00000000       0.00000000       0.00000000
H        0.59380746      -0.49897972      -0.58861941
H        0.02534527       0.05724159      -1.23730469
H       -0.44618729      -0.46354809      -0.79960239
H        0.46476212       0.48873118      -0.41629702
H       -0.58530700       0.45615277      -0.51529527
