6
Properties=species:S:1:pos:R:3 pbc="F F F"
H        0.00000000       0.00000000       0.00000000
H        0.88292891      -0.28314662      -0.29719594
H        0.94925982      -0.68205780       0.64609301
H        0.24235971      -0.92909771       0.16155532
H        0.07935627      -0.34590691       0.92403758
H        0.77671003       0.32675344       0.45433608
