7
Properties=species:S:1:pos:R:3 pbc="F F F"
H        0.00000000       0.00000000       0.00000000
H        0.88791460       0.34709048      -0.19798161
H        0.74192291      -0.15188923       0.62528419
H        0.80797929       0.84636509       0.85430110
H        0.09158307       0.84213853       0.21928008
H       -0.05458426       0.38281700       1.16159761
H        0.03148405       0.37845421       0.89657241
