21
Properties=species:S:1:pos:R:3 pbc="F F F"
H        0.00000000       0.00000000       0.00000000
H       -0.53245163       0.67024595      -0.56620628
H       -0.95274138       0.11402464      -1.31939840
H       -0.61414492      -0.29518521      -0.46961561
H        0.42312509       0.82172674      -0.67569405
H        0.07870138       0.63695574      -1.56748605
H        0.52711815      -0.19477528      -1.33252478
H        0.84018588      -0.38953388      -0.37472439
H       -0.14781991      -0.89468008      -0.48064622
H       -0.33496639      -0.76484621      -1.27555525
H        0.59421092       0.59984893      -0.25664866
H       -0.45443714      -0.17670506      -1.60968029
H        0.39230800      -0.91723108      -1.05956149
H        0.85189664       0.31954604      -1.04190469
H        0.62336874      -0.50244701      -0.40597174
H       -0.58086258       0.74337226      -0.22570629
H        1.05565822       0.12920010      -0.82207870
H        1.87640905       0.48808494      -0.17778686
H        1.87950826       0.53273660      -0.17759624
H        1.87950826       0.53273660      -0.17759624
H        1.87950826       0.53273660      -0.17759624
