16
Properties=species:S:1:pos:R:3 pbc="F F F"
H        0.00000000       0.00000000       0.00000000
H       -0.67230010      -0.60990006       0.35227177
H       -0.65614247       0.36941910       0.04568267
H        0.31084967      -0.87409192       0.48243737
H       -0.88719594      -0.20053810       1.20918691
H        0.83425075      -0.05761951       0.14665765
H        0.00947824      -0.78969872       1.40445352
H       -0.35534006       0.57406402       1.46449435
H        0.75021684       0.49815929       0.94171047
H        0.04290887       0.17076415       1.56083238
H        0.74641037      -0.44485378       0.97772413
H        0.26305681       0.76833028       0.26764303
H       -0.93614519       0.30622265       0.80172426
H       -0.25998735       0.86446714       0.85272193
H        0.64609826       0.00470030       1.53471887
H       -0.66683471      -0.80751115       0.63269740
