21
Properties=species:S:1:pos:R:3 pbc="F F F"
H        0.00000000       0.00000000       0.00000000
H       -0.46163812      -0.66108263       0.54582143
H        0.96617162       0.11800810       0.02544156
H        0.12415008      -0.84879911      -0.46063843
H        0.87530667      -1.54561591      -0.52008736
H        1.41982722      -1.63457096       0.34530753
H        0.26091626       0.00916332       0.83219445
H        1.74100161      -0.91202307       0.99959755
H        0.17725798      -1.12463069       1.20176268
H        0.00271763      -1.47172117       0.30894423
H        0.19886950      -0.54945338       1.17796564
H        1.02656114      -1.48309016       1.22306395
H        0.72502893      -1.79839873       0.35259289
H        1.29149997      -0.07446110       0.61260659
H        0.97221440      -0.68847609       1.33597231
H        1.43548763      -0.79358459       0.07088561
H        0.96019036      -0.85006738      -0.31531939
H        0.81545800      -0.37845421      -0.37398073
H        0.73127300      -1.48770666       0.87222868
H       -0.28192446      -0.52047026       0.29807201
H        0.69354218      -2.15721536       0.27861342
