21
Properties=species:S:1:pos:R:3 pbc="F F F"
H        0.00000000       0.00000000       0.00000000
H       -0.92501378       0.29845181       0.32954502
H       -0.41344014      -0.87984765       0.05473801
H       -0.27447242      -0.47048569      -0.81771356
H       -1.05990779      -0.96880263      -0.73740506
H       -1.76647735      -0.19659626       0.01301625
H       -0.45674083       0.31626427      -0.58354151
H       -1.35192609       0.33224982      -0.36738002
H       -1.84054101      -0.44285107      -0.32836893
H       -1.08304262      -0.04139572      -1.17638683
H       -0.99526912      -0.64861012       0.54448432
H       -0.64950114      -0.49504808       0.62161046
H       -1.90472412      -0.44030690      -0.70837688
H       -1.27086163      -0.92360455       0.10379094
H       -1.60712433       0.82099873      -0.55673486
H       -2.67613363       1.56272531      -1.19071913
H       -2.91999865       0.57334250      -1.31309342
H       -1.54684043       0.87521857      -0.58726531
H       -1.58748078       0.84864485      -0.57996053
H       -0.82802862      -1.14408636      -0.82796866
H       -1.94439566       0.40560621      -0.26767021
