21
Properties=species:S:1:pos:R:3 pbc="F F F"
H        0.00000000       0.00000000       0.00000000
H        0.59380746      -0.49897972      -0.58861941
H        0.07623774      -0.10006854      -1.38002038
H       -0.46827286      -0.01781246      -0.91308659
H       -0.53870481      -0.91654098      -1.47244525
H        0.20322269      -1.16922569       0.08334619
H       -0.74931473      -0.86329013      -0.67958987
H       -0.11025953      -1.53353608      -1.12197292
H        0.46063316      -1.14615452      -1.51632142
H       -0.02303137      -1.39883924      -0.89103085
H        1.25254989      -0.89551091      -2.02436304
H        0.57431567      -1.13274181      -1.63805723
H        0.23053688      -1.59248817      -0.87770408
H       -0.26858556      -1.72056031      -0.64604169
H       -0.95097291      -1.22137773      -2.53990197
H       -0.95097291      -1.22137773      -2.53990197
H       -0.95097291      -1.22137773      -2.53990197
H       -0.95097291      -1.22137773      -2.53990197
H       -0.95097291      -1.22137773      -2.53990197
H       -0.95097291      -1.22137773      -2.53990197
H       -0.95097291      -1.22137773      -2.53990197
