16
Properties=species:S:1:pos:R:3 pbc="F F F"
H        0.00000000       0.00000000       0.00000000
H        0.47219095      -0.55577880       0.64514065
H        0.34327066      -0.24047029       1.55729246
H       -0.91324812      -0.31530851       0.12091081
H       -0.56865859       0.56138086       0.52833897
H       -0.79250818      -1.00080276       0.80177820
H        0.77003366       0.34272051       0.90474153
H       -1.14211142      -0.06466493       1.03352261
H        0.39952251       0.73140323       1.53835797
H       -0.39012972       0.47242588       1.53508544
H        0.44494975       0.47242588       0.66253722
H       -0.11325067      -0.95817608       0.11389033
H       -0.33400437      -0.44691390       1.53656340
H        0.20137966      -1.08975780       1.04177368
H       -0.18458697       0.89619899       0.91721904
H       -0.56220102       0.15720981       1.68648720
