21
Properties=species:S:1:pos:R:3 pbc="F F F"
H        0.00000000       0.00000000       0.00000000
H        0.42017129      -0.49897972       0.72286665
H        0.03639187      -0.68549418      -0.69053179
H        0.15780188      -1.56437039      -0.44319773
H       -0.58976579      -0.62336659       0.85657871
H       -0.84883654      -0.80988109      -0.18632704
H       -0.22817950      -1.61778629       0.50627005
H        0.40360934      -0.90328777       0.22807676
H       -0.83533323      -0.16479573       0.17092617
H       -0.31748813      -0.11411909       0.99392635
H       -0.52383000      -1.36154795       0.47576976
H       -0.62265974      -1.32136858      -1.02125168
H       -1.11133194      -1.40119994      -0.24461514
H       -0.66308194      -1.86263514      -0.15075001
H       -0.45340252      -0.65984380      -0.64294124
H       -0.20453496      -1.25117850      -0.29959124
H        1.15910339      -0.43362674       0.62394035
H        0.01722836      -0.85119748       0.19440743
H       -1.26490331      -2.67910767      -0.30729967
H        0.24064384       0.93864530       0.09537537
H        0.24384274       0.93864530       0.08687136
