21
Properties=species:S:1:pos:R:3 pbc="F F F"
H        0.00000000       0.00000000       0.00000000
H        0.68725604      -0.43977645       0.53135377
H        0.64777189       0.50728548       0.75400984
H        1.51487207       0.65876627       1.17024505
H        1.46322954       0.09792352       0.41413838
H        2.10524964      -0.17879570       1.22741151
H        1.57440925      -0.82050711       0.71775848
H        0.72658652       0.43148959      -0.58241963
H        1.64473557      -0.76198649       1.85659850
H        1.63263404       0.28000879      -0.25963134
H        0.58078688      -0.79439902      -0.29144579
H        1.32715380       0.16542041       2.16054273
H        0.42038348      -0.31530851      -0.81970674
H        0.13369220      -0.28711355       1.15147197
H        0.46732187      -0.39080089       2.09249282
H        0.83139575      -1.13820934       1.49070001
H        1.40140092      -0.01685670      -0.86277854
H        0.63392818       0.49909735       1.67200947
H        1.69949627       0.04886621       1.90644932
H        1.19191682      -0.78021216       0.72245497
H        0.82051659      -0.65035725       2.25224948
