21
Properties=species:S:1:pos:R:3 pbc="F F F"
H        0.00000000       0.00000000       0.00000000
H       -0.01035373      -0.77460212      -0.58986890
H       -0.25008348      -0.45929360      -1.47934687
H       -0.65913463      -0.19141132      -0.15739605
H       -0.86156774      -0.80638409      -0.80579215
H       -0.82195300       0.49897972      -0.15321046
H       -0.02808289       0.87668937      -0.53287053
H        0.44265378      -0.08439321      -0.86313170
H       -0.27523786       0.50116926      -1.63726830
H       -0.72338277       0.83149129      -1.05120480
H       -0.91785741      -0.07457286      -1.44559276
H       -1.28371835       0.07030529      -0.47940516
H        0.05746460       0.91053122      -0.81885964
H       -0.52377653       1.27452993      -0.77558625
H       -0.54673052      -0.22791657      -1.49785542
H       -0.74943340       0.86470431      -0.84926146
H        0.18227336       0.12691635      -0.78497201
H       -0.58018720       0.51729500      -0.65303469
H       -0.60853481       1.10909605      -1.85301137
H        0.00490713       0.16681574      -1.94993830
H       -0.90466118      -0.99932355       0.15314448
