21
Properties=species:S:1:pos:R:3 pbc="F F F"
H        0.00000000       0.00000000       0.00000000
H        0.14728610      -1.02954066      -0.28719354
H        0.52243268       0.67024595       0.57546359
H       -0.49949956      -0.23514163      -0.22456500
H        0.67313641      -0.32800835       0.39080024
H        0.39758822       0.79463285      -0.43560797
H        0.89745152      -0.59220022      -0.57522732
H        0.11246908      -0.11695981      -0.81114727
H       -0.23760888       0.28500152       0.41965505
H        0.69873792       0.17747885      -1.04046369
H        0.29944360      -0.73127586       0.57084149
H        1.14590108      -0.68607777       0.38210374
H        0.43225235      -0.94911432       1.51050591
H        0.92650479       0.79219341      -0.25079781
H        0.48201853      -1.34802556       0.56619811
H        1.15906274      -0.01644653      -0.46567756
H        0.29127276      -0.05324501       1.34963083
H        1.08065784       0.15631902       0.47028571
H        1.23896670      -0.52898997       0.95464504
H        0.22421424      -0.23801598       2.30326796
H       -0.30011940       0.10907450       1.55985463
