21
Properties=species:S:1:pos:R:3 pbc="F F F"
H        0.00000000       0.00000000       0.00000000
H       -0.33100656      -0.58582085      -0.77496612
H        0.09440878       0.02889371      -1.47815299
H        0.64024544      -0.02452220      -0.61066639
H        0.36809859       0.89390844      -0.78525788
H       -0.89315379       0.25174111      -0.96418625
H       -0.95413303      -0.02959955      -0.17859781
H       -0.17182365       1.05357742       0.07282937
H        0.45695329       0.75007993      -0.04990214
H       -0.67185235       1.03576493      -0.82326096
H       -0.09604795       0.98323107      -1.44610000
H       -0.16232729       0.23666903      -1.43303645
H       -1.04947138       0.89949816      -0.45382306
H       -0.84070998       0.83370912       0.02213781
H       -0.19916981      -0.85823131      -0.55903816
H        0.00376648      -0.59165341      -0.77623141
H       -0.06246501      -0.01178709       0.32927501
H       -0.01741850      -0.11855455       0.23125193
H        0.05950272       0.39253747       0.26490796
H        0.05592060       0.35388374       0.30625948
H       -0.38255095      -0.01818131       0.14696172
