21
Properties=species:S:1:pos:R:3 pbc="F F F"
H        0.00000000       0.00000000       0.00000000
H        0.07742673      -0.40936196      -0.88005048
H        0.69965601       0.81092590      -0.13041466
H       -0.07229763       0.77460212      -0.58551311
H        1.37364054       0.59308743      -0.79851061
H        0.70083022       1.12078464      -1.26426041
H        1.02052498      -0.08895500       0.06276756
H        0.48612124      -0.81366080      -0.22294217
H       -0.05935669       0.13872772      -1.32277632
H        1.34374011      -0.46740919      -0.77411079
H        1.52160907       0.31194618      -0.28362527
H        0.72909284      -0.33328009      -1.38517678
H        0.56624848      -0.70203149      -1.13368714
H        0.94342506      -0.25739586      -1.40848088
H        0.28762209       1.05336952      -0.69335097
H        0.66509330       0.50718904      -1.25262749
H       -0.02681810      -0.38285154      -0.89007986
H        0.41195986       1.26682043      -1.09643555
H        0.35323790       1.23178840      -1.04474688
H        1.16010273      -0.12425643      -1.40012264
H        0.74784780       0.40454865      -0.07577956
