21
Properties=species:S:1:pos:R:3 pbc="F F F"
H        0.00000000       0.00000000       0.00000000
H       -0.78841746      -0.36585209      -0.54577839
H       -0.36154467       0.84879911      -0.31126589
H        0.44310686       0.33235219      -0.86401516
H        0.82422912      -0.04610202      -1.67615986
H       -0.48045212      -0.11520851      -1.43482065
H       -0.97302896       0.50170863       0.36228883
H        0.98874527      -1.05848169      -1.71284258
H       -1.26788139       0.40382698      -0.70716709
H       -0.44814411       0.42875805      -0.99396312
H        0.82789314      -1.37379026      -0.80577695
H       -1.00908732      -0.52269852       0.31116432
H       -1.76813269       0.23751676      -0.23044753
H       -0.08366477       0.12325442       0.48003757
H       -0.06084150      -0.44501320      -2.00909209
H       -1.42410707      -0.45381543      -0.16553342
H       -0.63748074      -0.46282566      -1.16027308
H        0.42056665      -0.39945903      -0.22213882
H        0.36884153      -0.70354432      -0.17858809
H        0.42618197      -0.49394262      -0.69371843
H       -0.23971611       0.11447436      -0.03851014
