21
Properties=species:S:1:pos:R:3 pbc="F F F"
H        0.00000000       0.00000000       0.00000000
H        0.52691501       0.55577880      -0.60127473
H       -0.31768668       0.25732699      -1.10217226
H        0.88264155       0.17478335      -0.19680586
H       -0.77542019       0.17293379      -0.24694204
H        0.31352073      -0.35116822       0.47609851
H       -0.16642411      -0.65121889      -1.10349965
H       -0.16642411      -1.43695605      -0.36407799
H        0.57112688      -1.01707101      -0.49072343
H        0.20107180      -1.01225090      -0.22986600
H        1.05340111      -0.06231192      -1.07028449
H       -0.63419789       0.13294008      -0.13383740
H        0.32203215      -0.59000909      -1.43729401
H        0.22075212       0.22083470      -1.48811758
H       -0.11889768       0.31958300       0.01626706
H        0.83008587       0.81995618      -1.31107068
H        0.55332172       0.46207321      -1.70512378
H        0.92349583      -0.48475862      -0.81978387
H        0.57394546       0.46207321      -1.67418480
H        1.17497694       0.57633162      -1.59220743
H        0.89913201       0.54162019      -1.32706153
