21
Properties=species:S:1:pos:R:3 pbc="F F F"
H        0.00000000       0.00000000       0.00000000
H       -0.02481474      -0.91159266      -0.47085762
H        0.58703154      -0.21783850       0.74565488
H       -0.68627989      -1.41057241       0.04055607
H        0.08211410      -1.83899951      -0.04446989
H        0.70761728      -0.75192374       0.23012239
H        0.27114797      -1.05540049       1.24768209
H        0.57825243      -1.55585289       0.74403220
H       -0.79275197      -0.51268148       0.08092701
H       -0.95127130      -0.94091141       0.85127115
H       -0.47873753      -0.04998140       0.73630226
H       -0.51643234      -1.51894855       0.78060150
H       -0.13272494      -0.78943062       1.35634172
H        0.63693398      -0.94668233       1.23530746
H        0.74764049      -1.06763101      -0.16852286
H        0.46118331      -0.48980659       1.18749356
H       -0.78951085       0.64087987       1.16090286
H       -0.47654408      -0.09093136       0.60004175
H       -1.35993588      -1.86831832       1.01323891
H       -1.28272867      -1.89657664       1.02494812
H       -0.10613239      -1.74493074       1.05534804
