18
Properties=species:S:1:pos:R:3 pbc="F F F"
H        0.00000000       0.00000000       0.00000000
H        0.02715597      -1.02162731       0.09414954
H        0.52324766      -0.18477097      -0.80008286
H       -0.93754512      -0.68927515      -0.01638389
H       -0.34870744       0.09837565      -1.12808156
H        0.39596790      -0.97938108      -1.34822106
H       -0.92626286       0.11800810      -0.27599305
H       -0.41097313      -1.50707829      -1.21241677
H       -1.00279450      -0.55006480      -1.13382149
H       -0.56903112      -1.21501184      -0.67679000
H        0.26689965      -0.98112673      -0.64922273
H       -0.80936736      -0.40936196       0.35413021
H       -0.25511366      -0.73027909      -1.37041736
H       -1.11731040      -1.07776201      -0.32358527
H       -0.08618036      -0.32668459      -1.65753555
H        0.72102320      -0.89004058      -0.30051249
H       -0.28827301       0.33754024      -0.74640495
H        0.61704671      -0.58961421      -0.16051026
