21
Properties=species:S:1:pos:R:3 pbc="F F F"
H        0.00000000       0.00000000       0.00000000
H       -0.58002573       0.67024595       0.51736289
H       -0.13348186       1.35574007       1.04533744
H        0.13967335       0.32315546       1.07380009
H       -0.32769024       0.90665692      -0.13657685
H        0.38154608       0.49897972      -0.74397767
H        0.25285137       1.56773949       0.28055882
H        1.09394729       1.09807849       0.42211109
H        0.76903534       1.04043150       1.23001075
H        1.03923631      -0.02697185      -0.15734112
H        0.87021530       0.17558712       0.79427266
H        0.68905360       0.98191863      -0.44045812
H        1.32352519       0.90212584      -0.22073008
H        1.22234321       0.41480601       0.73656237
H        0.30246419      -0.01689900       0.92535979
H        0.65006083       0.56458557      -0.65278041
H        0.56401640       1.03232312       0.13619384
H        1.01497269       0.60686719       0.06242607
H        1.02836609       0.57120931       0.13615209
H        0.85656923      -0.75970352      -0.68466920
H        0.85656923      -0.75970352      -0.68466920
