21
Properties=species:S:1:pos:R:3 pbc="F F F"
H        0.00000000       0.00000000       0.00000000
H        0.05110265      -0.33235219      -0.96966726
H        0.66442901      -0.94706678      -0.42260170
H        1.41271996      -0.39128798      -0.70408231
H        0.45161706      -1.19771039      -1.33908939
H        1.19171309      -1.46190226      -0.67894971
H        0.62940252      -0.52769721       0.52292365
H        0.90630925       0.10440663      -1.20606852
H        1.86647761      -0.82277757      -1.51725185
H        1.01716590      -0.61803138      -2.15039945
H        2.10205460       0.29420620      -0.75863844
H        1.19980860      -0.83185828      -1.93882728
H        0.97297943      -0.31448025      -1.96385741
H        1.81446671      -0.66750324      -0.86450809
H        1.13770819      -1.47971475      -1.70368874
H        1.09742546      -0.44556198      -1.61332369
H        1.37926245      -1.84035647       0.19835216
H       -0.51657337      -1.28210366      -1.27954090
H        1.35256529      -1.77721071       0.22811592
H        0.48298246      -1.39254165       0.10023436
H        0.25647444      -1.29626226      -1.53975058
