21
Properties=species:S:1:pos:R:3 pbc="F F F"
H        0.00000000       0.00000000       0.00000000
H        0.30968034       0.89379078      -0.23086154
H        0.21985438       0.94720668      -1.25184250
H        0.10645763      -0.43977645      -0.86216259
H        0.43660918      -0.86484438      -0.09735236
H        0.77247190       0.17012361      -1.22617888
H        1.25288749       0.35489458      -0.39966726
H        0.92098927      -0.39251393       0.22045207
H        0.92828363      -1.05449104      -0.86937463
H       -0.04900751       0.43148959      -0.92991340
H        1.43123198      -0.25988090      -1.12176013
H        0.85386896       0.30796993       0.41256410
H        1.10889685       0.45215860      -1.38546419
H        1.28582048      -0.94829273      -0.49093318
H        0.32256234      -0.44411427      -1.49494100
H        1.43123198      -0.01849230      -0.07016194
H        1.03097856       0.05158034      -1.57610965
H        1.46647906       1.07802415      -0.40472654
H        1.85094368       0.18423337      -0.36749870
H        1.84497738       0.13592046      -0.25471473
H        1.41469049      -0.70690411      -1.53460526
