21
Properties=species:S:1:pos:R:3 pbc="F F F"
H        0.00000000       0.00000000       0.00000000
H       -0.37664786      -0.36585209      -0.88182342
H       -0.29376310       0.68549418      -0.62598866
H       -1.24409223       0.60110098      -0.43153203
H       -0.68725592      -0.43977645       0.53135383
H       -0.35889763       0.51588881       0.35188654
H       -1.48186243      -0.08439320       0.21779370
H       -0.99496305      -0.08439320      -1.07658482
H       -1.25437784       0.20058030       0.56811929
H       -0.91549206       1.04613686       0.23788559
H       -1.07496703       0.88646793      -0.76331234
H       -0.71362793      -0.63587439      -0.18563354
H       -1.32700062      -0.93706143      -0.46600649
H       -1.04378569       0.48463121      -1.21660113
H       -1.70247197      -0.04327065      -0.37534097
H       -0.47130525      -1.14312482      -0.19460061
H       -1.10268545      -0.67286956      -1.43203402
H       -1.67752540      -0.33555865       0.13703963
H       -0.12018275       0.82258987      -0.02981737
H       -0.19226980      -0.95761424      -0.80411577
H       -1.66632056      -0.10477316      -0.66724277
