21
Properties=species:S:1:pos:R:3 pbc="F F F"
H        0.00000000       0.00000000       0.00000000
H        0.79402828      -0.31375703       0.65969908
H        1.35514474      -0.29685804      -0.13586587
H        0.25869572      -1.03630495       0.16506040
H        1.10271502      -0.38125125      -1.07246494
H        1.25603819       0.60813153      -0.84677142
H        1.35514474      -1.22595572       0.15540439
H        0.66826534      -0.05295110      -1.25365448
H        0.39716464       0.59783566       0.40509754
H        0.37476695       1.13408303      -0.85450494
H        0.88930815      -1.41072667      -0.67941105
H        0.64068079      -0.76040614      -0.70856857
H        2.06962848      -0.72678274      -0.14238259
H        0.37476695       0.73517185       0.09111327
H        0.41838458       0.39235646       0.38759577
H        0.05991799      -0.52495891      -0.74822396
H        1.01717961       0.90658331       0.10569739
H        2.05744743       0.81306648      -0.16490388
H        2.06630325       0.81306648      -0.12822956
H        1.37431431       1.80126333      -0.24831712
H        1.18601024       0.05610001      -0.62138259
