21
Properties=species:S:1:pos:R:3 pbc="F F F"
H        0.00000000       0.00000000       0.00000000
H        0.52815789      -0.26419187       0.83939010
H       -0.49922496       0.83173102       0.08401718
H        0.29623544       1.01650202       0.61426556
H       -0.60043520      -0.32832882       0.61645401
H        0.62051630       0.70504439       0.82880789
H       -1.40486860       0.19936839       0.46650916
H       -1.53114414      -0.61147547       0.57559097
H       -1.21808386       0.21626739      -0.48894197
H       -0.03386462       0.72194338       1.54961360
H       -0.71131784       0.03644919       1.68823433
H       -0.57228935      -1.14198959       0.08238947
H       -1.95655942       0.00323910      -0.12759584
H       -1.64865327      -0.97732759      -0.37607479
H       -0.53970492      -0.39363265      -0.82936066
H       -0.36440289      -0.45895046       1.30707407
H       -1.02194488       0.25428769       0.79150802
H       -0.51516008      -0.75165820      -0.13400678
H       -1.10278130       0.56218588       1.04116774
H       -0.59899747       1.16697931       1.06307185
H       -0.25674278      -0.14618376       1.40336347
