21
Properties=species:S:1:pos:R:3 pbc="F F F"
H        0.00000000       0.00000000       0.00000000
H       -0.33764970       0.29845181       0.92208624
H       -0.95460999      -0.14132464       0.31051648
H       -1.36221921       0.24503590       0.94906551
H       -0.93891120      -1.00616908       0.75757194
H       -0.14925337      -1.05684566       1.32496357
H        0.23625222      -0.18015629       1.69391489
H       -0.65270209      -0.69086057       1.63320076
H       -0.07192826      -1.09056234       0.32250950
H        0.56281745      -0.74347186       0.97418964
H        0.62351239       0.17784092       0.93879539
H        0.31055975      -0.24176323       0.03737104
H       -0.54125118      -0.70790428      -0.01782632
H       -1.00790358      -0.19188085       0.87629122
H       -0.37935781       0.64841133       1.33860707
H       -0.37935781       0.64841133       1.33860707
H       -0.43627286       0.76547104       1.13853288
H       -0.75196826       0.18801564       1.37617791
H       -0.50644588       0.46163756       2.35637593
H       -1.11899734       0.65597910       0.57716197
H       -0.82787192       0.73629713       0.97213507
