21
Properties=species:S:1:pos:R:3 pbc="F F F"
H        0.00000000       0.00000000       0.00000000
H        0.36329272       0.89468008       0.34769225
H        0.97557962       0.29845181      -0.11177969
H        0.42041922      -0.53911018      -0.32061136
H        0.86409652       0.64554226      -1.01464212
H       -0.70044059       0.08895500      -0.74484485
H       -0.16349238       0.37210160      -1.50614333
H       -0.05946839       0.64473379      -1.22267902
H        0.40705699       0.79762483      -0.63708550
H        0.30892158      -0.39581755      -1.22359157
H        1.05678809       0.12991914      -1.33599472
H        0.28382355       1.47942567      -0.55557108
H        0.99318349      -0.45482638      -0.43147582
H        1.40030968       0.48727730      -0.43504861
H        0.49057853       0.73201716      -1.22784841
H       -0.24248376       0.70209408      -0.46227014
H        0.02030176      -0.46682382      -0.39886603
H        0.07484007      -0.38070601      -1.10039973
H        0.26938391      -0.02488896      -1.48276532
H        0.68144161      -0.03649436      -1.15659642
H        1.20721614       1.45913219      -0.07279640
