21
Properties=species:S:1:pos:R:3 pbc="F F F"
H        0.00000000       0.00000000       0.00000000
H        0.65604281      -0.46966103       0.54505712
H        0.12466377      -0.86857224       1.32725286
H        0.92584574      -0.48656002       1.48046160
H       -0.77954406      -0.37845421       0.44400951
H       -0.89747572      -0.96427506       1.27841341
H       -0.40650782      -1.33411956       0.41448623
H       -0.30130821      -0.31818023       0.63775784
H        0.05046600      -0.81891221       1.90067148
H       -0.16609995      -2.04319954      -0.20798516
H       -0.36624882      -1.34634376       0.16597337
H        0.07320064      -1.29662728       1.30397356
H        1.04341209      -1.29127216       1.41620469
H        0.08142579      -1.26272690       1.20094001
H        2.27773547      -1.26980591       1.49212193
H        2.27773547      -1.26980591       1.49212193
H        2.27773547      -1.26980591       1.49212193
H        2.27773547      -1.26980591       1.49212193
H        2.27773547      -1.26980591       1.49212193
H        2.27773547      -1.26980591       1.49212193
H        2.27773547      -1.26980591       1.49212193
