21
Properties=species:S:1:pos:R:3 pbc="F F F"
H        0.00000000       0.00000000       0.00000000
H        0.63772744       0.77136850       0.22719663
H       -0.77767694       0.64286757       0.18778661
H        0.75302815       0.52072489      -0.70658296
H       -0.62051183      -0.01781246      -0.81729537
H        0.61240196       1.42927074      -0.65084797
H        0.30156225       1.07364833      -1.51564503
H       -0.81920725       0.98811060      -0.86159927
H       -0.03620881       0.45184857      -1.43864012
H        0.40247983       0.03560345      -0.75437611
H       -0.71379876       1.17439651      -1.17008805
H       -0.36145806       1.54939330      -0.73171794
H       -0.08640271       1.49391639       0.14422733
H       -0.27824503       0.72069186       0.55352056
H       -0.79236972       0.84031337      -0.22222626
H        0.15888298      -0.69557470      -1.27952147
H        0.03696299      -0.90785301      -1.23908794
H        0.08668441      -0.72661519      -1.34449840
H       -0.22931181       0.15966894      -0.98754537
H        0.27659261      -0.17787130      -1.60745049
H        0.29603672      -0.09286724      -1.63127613
