21
Properties=species:S:1:pos:R:3 pbc="F F F"
H        0.00000000       0.00000000       0.00000000
H       -0.21671417       0.94706190      -0.06457304
H       -0.43151838      -0.39891118      -0.84141886
H       -0.43048984       1.46749711      -0.98521113
H       -1.10800874       0.88430631      -0.59931266
H       -1.00827432      -0.08895500       0.16968775
H       -0.91342604       0.10006854      -1.52467954
H        0.46970120       0.82905382      -0.74499124
H       -1.76912344       0.12888350      -0.39751238
H       -0.08204904       0.44444007      -1.58865666
H        0.31542501      -0.17686921      -0.87781274
H       -0.32621118       1.22796500      -1.25559616
H       -1.30676198       0.48677978      -0.11243191
H       -0.96171629       0.50202596      -0.09728257
H       -1.35157561       0.68325937      -0.87971878
H       -0.54035270       0.51813263      -0.93176204
H       -0.77240759      -0.09469004      -0.52692866
H       -0.96601641       0.62997866      -0.12387519
H        0.52812183       0.66165596      -1.42177987
H        0.52812183       0.66165596      -1.42177987
H        0.52812183       0.66165596      -1.42177987
