21
Properties=species:S:1:pos:R:3 pbc="F F F"
H        0.00000000       0.00000000       0.00000000
H       -0.04850490       0.68549418       0.68978679
H       -0.05061924       0.15148079      -0.96049577
H       -0.12950851       1.00912321      -0.40232915
H       -0.11149943       1.02693570      -1.42833209
H       -0.98314977      -0.26419187       0.13016553
H       -0.37960461       1.61012650      -0.69616473
H       -0.77590257       0.07559413       0.47304839
H       -0.23153928       1.43290269       0.01066762
H       -1.24868810       1.08417487      -0.54990214
H       -1.06988549       0.06252579      -1.04116368
H       -1.49639738       0.67242587      -0.41333365
H       -0.87103510       0.89425683      -1.50672030
H       -0.73240656       0.52839607       0.06052738
H       -0.66439396      -0.20166607      -0.13612050
H       -1.21046615       0.81594920       0.72684121
H       -2.15427351       0.27725962      -1.28295398
H       -0.83253336       0.40824845      -0.80704331
H       -1.29450333       0.65571380      -1.53913474
H       -1.03567243       1.44630384      -1.06205070
H       -0.98088157       0.17112017      -1.60446560
