21
Properties=species:S:1:pos:R:3 pbc="F F F"
H        0.00000000       0.00000000       0.00000000
H        0.50421435      -0.31530851      -0.77097952
H        0.84909046      -1.29027486      -0.46336213
H        0.13607804      -0.05067664       0.96279573
H        0.79169118      -1.81797206       0.35291103
H        1.14070034      -0.17506354       1.13186872
H        0.69121873      -0.18454279       0.28356159
H       -0.12228875      -0.98932195       0.97868657
H        1.27795184      -0.44607425      -0.03046775
H        1.13212812      -1.13693547       0.47510237
H        0.29154414      -1.54510069       0.29464483
H        0.54540336      -0.84048313       1.07130241
H       -0.24081375      -0.84547770      -0.27479810
H       -0.35824981      -0.62193072       0.55609936
H        1.08838212       0.24430464       0.13913488
H        0.28962058       0.02646615      -0.37329781
H        0.04934227      -1.44960403      -0.09882796
H        0.91839099       0.35067314       0.40901512
H       -0.06346092      -1.16536725      -0.13756526
H        1.55857122      -1.05304396      -0.78874022
H        1.54671526      -1.05304396      -0.81343865
