21
Properties=species:S:1:pos:R:3 pbc="F F F"
H        0.00000000       0.00000000       0.00000000
H       -0.93989587      -0.24138860      -0.47165081
H       -0.16259582       0.43148959       0.91689873
H       -0.35313314      -0.49504808      -0.82676977
H        0.37420720      -0.09613690      -0.22247684
H       -0.11310215      -0.59291756       0.95516491
H       -0.45150656      -1.30368805      -0.52580607
H       -0.86873734      -1.01275706       0.20158842
H       -0.42119670       0.33554381       0.02477443
H        0.05755079      -1.28496218       0.42531812
H       -0.71817875      -0.88425618       0.29704073
H        0.23143308      -0.51061410       0.81440133
H        0.27789438      -0.59440202       0.08019888
H       -1.70785904      -1.59217691      -0.49272344
H       -2.38531232      -2.27767110      -0.35410273
H       -1.78890920      -2.98675108      -0.65338498
H       -1.22049820      -0.19678327      -0.74278241
H       -0.99759883      -2.22805119      -0.29459441
H       -0.81332958      -2.68829918      -0.76516467
H       -1.84801269      -2.62476158       0.37999409
H       -0.96126950      -0.64652884      -1.57194400
