21
Properties=species:S:1:pos:R:3 pbc="F F F"
H        0.00000000       0.00000000       0.00000000
H        0.05739931      -0.52769721       0.81627315
H        0.55020261       0.85764241      -0.12268072
H        0.11247413       0.99825430       0.21014698
H        0.67349166      -0.03822690      -0.29748300
H       -0.23211540       0.12156492       0.61757511
H        0.95675820      -0.47428131       0.32472014
H        0.94108224       1.04241335       0.74974906
H        0.35894358       0.83064485       0.92727804
H        0.86710691      -0.00462028       1.17291939
H        1.37366164       0.40556633       0.33569819
H       -0.06041974      -0.53591508      -0.27852505
H        0.10852613       0.19485068       1.54334569
H        1.18904448       0.24780321       1.25489283
H        0.21404535      -0.27999294      -0.08121660
H        0.25671166      -0.57953179       0.82772332
H       -0.12026957       1.14021206       1.58201313
H        1.00332975       0.42520571      -0.73338526
H        1.98832655       1.03091478       0.05380404
H        1.82098937       1.45740402       0.02603763
H        1.75805128       1.47565126       0.00476438
