21
Properties=species:S:1:pos:R:3 pbc="F F F"
H        0.00000000       0.00000000       0.00000000
H       -0.92830116      -0.43148959      -0.07346868
H       -0.28273186      -0.68549418       0.63104779
H       -0.90166450      -1.04138970       0.68506503
H        0.39206582      -0.36585209       0.87507743
H       -0.64954239      -0.30703998       1.44975615
H       -0.83547002       0.64002192       1.32104862
H       -0.37315431       0.81366080       0.38310957
H       -0.29990143      -0.10166022       1.58550537
H       -1.14511216       0.34165299       0.21098311
H       -1.16513956      -0.28178805       1.40458810
H       -1.00260937       1.37183309       0.70090532
H       -1.03835475       1.27146745       0.84604669
H        0.17657937       0.60222340       0.61103308
H       -0.33252621      -0.83785987       1.19211507
H       -1.31881511       0.08911681       1.02351487
H       -0.28956848       0.26638338       0.08239627
H        0.15383407       0.49899229       1.25369430
H       -1.37071598      -0.57677764       0.44260567
H       -0.40376320       0.62337917       0.40108830
H       -0.43808556      -0.02312499       0.32913888
