21
Properties=species:S:1:pos:R:3 pbc="F F F"
H        0.00000000       0.00000000       0.00000000
H        0.45934626      -0.55622131       0.73002923
H       -0.72797638       0.61471456       0.38144499
H        0.22579885       0.59781557       0.57660675
H       -0.72074223      -0.55577880       0.34597898
H       -0.24862607      -0.37845421       0.86198521
H       -0.56362963       0.28262842       1.50370443
H       -0.18716440      -0.70770210       1.44216573
H        0.95731843       0.15285861       1.17420292
H        0.49380764      -0.25776950       1.71138692
H       -0.53050750       0.78258657       1.16134715
H        0.02716756       0.95337963       1.28146744
H        0.22228193       0.41773289       1.84757185
H       -0.68498981      -0.68016571       1.36410153
H       -1.36632919       0.23862022       0.27200899
H       -1.25674260      -0.03911996       1.30882072
H       -0.56279743       0.73366833      -0.13121292
H        0.01414925      -0.41943723       1.94748211
H       -1.33675528       0.82444108       1.11418664
H       -0.69427747       0.33890128      -0.15618747
H        0.48333308      -0.23083913       0.61070341
