21
Properties=species:S:1:pos:R:3 pbc="F F F"
H        0.00000000       0.00000000       0.00000000
H       -0.77018702      -0.01689900       0.59547228
H       -0.88483876      -0.73944688      -0.12432164
H       -0.24119323      -0.89358836       0.66550922
H       -0.36227036      -1.51404905       0.14949363
H        0.51928383      -1.46063316      -0.37331885
H        0.44618398       0.77136850      -0.50915068
H       -0.79847252      -0.92822820      -0.57152337
H       -0.90924138       0.22961354      -0.41699120
H        0.58110344      -0.93468159       0.50581551
H        0.41416633      -0.20809418       0.44491366
H        0.48823535      -0.68603104      -0.96246105
H        0.17518675       0.16787197       0.45338410
H        0.12088901       0.13609675      -0.72393328
H        0.59609544      -0.66821861       0.05801576
H       -0.35018796      -1.24225235      -0.76000595
H       -0.42501277      -0.37072253      -0.84155023
H        0.76599818      -0.13436413      -0.27919739
H       -0.01623487       0.75629640       0.22576207
H        0.54029500       1.72570586      -0.67780501
H        0.61939257       0.91683108      -0.60725272
