21
Properties=species:S:1:pos:R:3 pbc="F F F"
H        0.00000000       0.00000000       0.00000000
H        0.35866648      -0.83756196      -0.47241095
H        1.17897403      -1.45227647      -0.42195779
H       -0.12157215      -0.43977645       0.86016154
H        1.11659384      -0.25437117      -0.28939313
H        0.92183590      -0.53751779       0.62162727
H        1.90286922      -1.36788321       0.22373134
H       -0.59365958      -0.99599779       0.13830620
H       -0.38686621      -0.88436854      -0.75226283
H        0.71604115       0.32832882       0.47730809
H        0.55966133       0.33235219      -0.79350179
H        0.22613864      -1.44746208       0.27493051
H        0.43509945      -1.26932907       0.20257962
H       -0.76034629      -0.62017667       0.16645318
H        1.39937723      -2.36889076      -1.13861322
H        1.49707019      -1.35189772       1.05041718
H        0.64369434      -0.90060955      -1.01249003
H        0.45694688      -0.36848792       1.18486762
H        1.11927819      -1.49227011       0.87475878
H        1.59822762      -3.20062184      -1.60416985
H        1.93285775      -3.02997351      -0.66276735
