7
Properties=species:S:1:pos:R:3 pbc="F F F"
H        0.00000000       0.00000000       0.00000000
H       -0.47398776      -0.23709527       0.75329894
H       -0.20031992       0.70500839       1.05474615
H       -0.29432368       0.61170387       1.19525123
H        0.23390692       0.95834106       0.43703234
H       -0.10029319       0.45376602       0.38286933
H       -0.20335042       0.34275535       0.44446850
