16
Properties=species:S:1:pos:R:3 pbc="F F F"
H        0.00000000       0.00000000       0.00000000
H       -0.04850490       0.68549418       0.68978679
H       -0.17674640       0.31530851      -0.90410298
H       -0.20829734       0.81035662      -0.00562882
H        0.09117088       0.68596971      -0.97936928
H        0.42215070      -0.87668937       0.32638690
H        0.15809724       0.00218683       0.24770844
H        0.17980151      -0.15167594       0.65547270
H        0.16207771      -0.27284688       0.24105006
H        0.44817972       0.54057008      -0.66092992
H       -0.32856166       0.93925190      -1.49368465
H        0.35553038       0.73450571      -0.68484318
H       -0.58382481       1.23937416       0.42115697
H       -0.73606777       1.63714278       0.68307716
H       -0.86550665       2.02415776       0.97198027
H       -0.65287328       1.31954026       0.18303895
