21
Properties=species:S:1:pos:R:3 pbc="F F F"
H        0.00000000       0.00000000       0.00000000
H        0.85755634      -0.19475858       0.52914101
H       -0.45999488      -0.81366080      -0.27280354
H        0.58838999       0.26878953      -0.34607130
H        0.92907614      -0.13012165      -1.22818625
H        0.85244459      -1.12385631       0.23791564
H        0.27456096      -1.42356086      -0.46388102
H       -0.10128528      -1.69350839      -0.48553905
H        0.54262912      -0.11230919      -0.27757311
H        0.12353677      -1.27533710      -0.38962549
H        0.98720109      -0.52789032      -1.52551031
H        1.14873886      -1.54026997      -1.57364285
H        1.24848890      -1.75810850      -0.62989646
H        0.61104298      -0.01233170      -0.36238378
H        0.86574209       0.26764700      -0.93192810
H        1.37812531      -1.97990906      -1.81757116
H        1.14043677      -1.37835479      -2.04662752
H        0.97443062      -1.42824221      -2.43484902
H        1.05422449      -1.48486102      -2.65622449
H        0.14817107      -1.11152458       0.33115894
H        1.16962826      -0.22838649      -1.95261621
