21
Properties=species:S:1:pos:R:3 pbc="F F F"
H        0.00000000       0.00000000       0.00000000
H        0.54069358       0.79439902       0.36042264
H        0.16630152       1.25794709       1.19605267
H       -0.66098273       1.10646629       0.70542538
H       -0.19333833       0.23817772       0.81334519
H        0.68378133       0.88335401       1.37281430
H       -0.84460241       0.96420908       1.20687175
H       -0.40507412       1.08682692      -0.39666164
H        0.58357310      -0.17747450       0.40146083
H       -0.29109702       1.04757178      -0.36237001
H        0.32575923       0.73913980       1.10552382
H        0.13565850       0.49836063       1.11332226
H        0.63858432       0.86125529      -0.04405573
H        0.47518986       0.91338360       0.12083176
H       -0.70904034       0.63776445       2.07395911
H        0.21188390       1.21765971       1.76397383
H       -0.70904034       0.63776445       2.07395911
H        0.23135948       1.21765971       1.82933617
H       -0.38301212       0.70755512      -0.19841427
H        0.20976710       1.28366959       1.93586385
H       -0.10333318       0.64659137       0.76138592
