21
Properties=species:S:1:pos:R:3 pbc="F F F"
H        0.00000000       0.00000000       0.00000000
H       -0.50007260       0.47200781      -0.61275923
H       -0.88069600       0.40936196      -0.06970106
H       -0.12043417       0.59001589      -1.50158405
H        0.23776096       0.87091899      -1.20419431
H       -1.34121001       0.99255276       0.55948591
H       -0.63140410       0.29573601       0.81236124
H        0.29415914       0.84065950      -0.65698296
H       -0.95143139       0.11750036       0.47204587
H       -0.55704331      -0.27482849      -1.59893656
H       -0.43168736       1.13584542       0.58343577
H        0.93947160       0.39891118      -0.10764251
H       -1.06716228       0.27750260       0.73688471
H        1.21964896      -0.06289634      -0.22441657
H        0.45853114      -0.39921540      -1.67931235
H        0.46649462      -0.08377334      -2.13300228
H        0.34167349       0.57730925      -1.42911983
H        0.61851728       0.35647184      -1.01618576
H       -0.79293209      -0.00826409      -2.02166772
H        0.12237042      -1.06996655      -1.14505911
H        0.33649313      -0.90024579      -1.52489352
