21
Properties=species:S:1:pos:R:3 pbc="F F F"
H        0.00000000       0.00000000       0.00000000
H       -0.19310522      -0.77460212      -0.55746114
H       -0.67900568      -0.49897972       0.48788470
H       -0.01229785      -0.92072743       0.02115733
H       -0.86174297       0.29826480      -0.12951864
H       -1.33270311       0.41627291      -0.97351593
H       -1.36410403      -1.16006231       0.28375000
H       -0.76386523      -0.65653557      -0.62589210
H       -0.82894790      -0.05338812      -0.28524989
H       -1.42211270      -1.18882477       0.83257550
H       -0.95783257      -0.89160872      -1.46726978
H       -0.50621188      -0.90211350      -1.06444001
H       -0.93868870      -1.77477694      -0.41943681
H       -0.88833606      -1.94683480       0.22923759
H       -1.57766163      -2.35619688      -0.32331464
H       -0.87450081      -0.79322290      -1.62316656
H       -0.92612058       0.16785710       0.52749592
H       -1.61331689      -1.59743893      -0.48940888
H       -1.11398816      -1.14548767       1.22395921
H       -1.61404431      -1.87909269      -0.17823586
H       -0.99135542      -0.94896185      -1.31188130
