21
Properties=species:S:1:pos:R:3 pbc="F F F"
H        0.00000000       0.00000000       0.00000000
H       -0.96783787       0.05067664       0.09371616
H       -0.18773924      -0.95433736       0.04533363
H       -0.20514397      -1.21852922      -0.94624269
H       -0.95359546      -0.08439321      -0.17774837
H       -1.13254368      -0.43390220       0.07021248
H        0.45472753      -0.50944930      -1.04542029
H        0.13082677      -0.01440123      -1.88407373
H       -0.49570942       0.64844042      -0.42677277
H        0.15060997       0.84324121      -1.32070708
H       -0.68479675       0.25742036      -1.21010220
H       -0.78693217      -0.32247496      -0.24378932
H       -0.19485807       0.28494972      -1.02831519
H        1.04853499      -0.01046959      -1.63403964
H        1.23053968       0.47128129      -1.43356001
H        0.51341736       1.43699360      -1.17691410
H        1.03242481       1.13236392      -0.74669665
H        1.00962007       0.33796489      -0.09728616
H       -0.56274927      -1.32339931      -1.35431433
H        0.53388286      -0.91187859       0.42344901
H        0.51173413       0.47966743      -0.98549294
