21
Properties=species:S:1:pos:R:3 pbc="F F F"
H        0.00000000       0.00000000       0.00000000
H       -0.07115869       0.77136850       0.67323917
H        0.21295218       0.88937658      -0.25056595
H       -0.51734596       1.23491657      -0.12636322
H       -1.05115378       0.54175496       0.87376606
H       -0.22093880       0.55774051       1.27229524
H       -0.23191044       1.56726873      -1.05447555
H       -1.48637593       1.32387161      -0.45254105
H       -0.86125439       0.74068081      -0.91855878
H        0.15562479       0.24093616      -0.90216124
H       -0.68217599      -0.02808034       0.56703073
H       -1.10520959      -0.35203582       1.25622773
H       -1.44033885       1.56504893      -0.01697925
H       -1.22345078       1.19919682      -0.95102191
H       -0.65198344      -0.34488469      -1.14279950
H       -0.76341593      -0.34244451       1.69037843
H       -0.95029759       0.42648381      -0.53507972
H       -1.49475145       0.45889008       0.66059053
H        0.32658541       1.06761217       0.20255604
H       -0.72396147       0.50877750      -0.84806228
H        0.47855106       0.74320287      -0.74362051
