21
Properties=species:S:1:pos:R:3 pbc="F F F"
H        0.00000000       0.00000000       0.00000000
H       -0.56912082      -0.52595156       0.67290437
H       -1.01378036       0.15966894      -0.00889638
H        0.01682853       0.36585209      -0.95874548
H       -0.39017811      -0.19036922      -0.19829345
H       -1.71413302       0.82075155       0.13441002
H        0.35887864      -0.36595914      -0.41513252
H       -0.43087316      -0.12818292       0.40333492
H       -1.26697373       0.44162452      -0.01610483
H        0.17319566       0.00172997      -1.26364613
H       -0.75572348       1.10484123      -0.58789623
H       -0.42048690       0.79164934      -0.78671086
H       -1.24892044       0.99997121      -0.81408352
H       -0.23306915      -0.01699595      -0.26428354
H       -0.47792625      -0.46392256      -1.10641885
H       -0.03363359       0.62739289      -0.12188518
H       -0.60993344       0.29811430      -0.10151196
H       -0.02930161      -0.67413545      -1.17384636
H       -1.30985105       0.41319513      -0.66896218
H       -0.93350255      -0.32473955      -0.70006323
H       -1.10122371       0.10320866      -1.31622231
