21
Properties=species:S:1:pos:R:3 pbc="F F F"
H        0.00000000       0.00000000       0.00000000
H        0.45934626      -0.55622131       0.73002923
H       -0.91543663       0.43148959      -0.17063563
H       -0.00418282       0.24671862       0.11839204
H        0.54157096      -0.07421425       0.83447206
H        0.09597126      -1.00125718       0.07883286
H       -0.16381866      -1.70996356      -0.35058483
H       -0.94061351       0.57688922      -0.64836472
H        0.48368478       0.15298367       0.76585579
H       -0.35059664      -1.39349020      -0.55432224
H       -0.12609616      -1.61644673       0.72363997
H       -0.45655191      -2.12753820      -0.23032820
H        0.75240529      -1.34860539       0.65411258
H       -1.40577054       0.51251620       0.49586576
H       -0.56737292      -1.95275486      -1.12782884
H       -0.87254524       0.40726572       1.17317533
H       -1.43644738      -0.34014279       0.75279588
H       -0.93563616      -2.08352065      -0.12214017
H       -0.37565100      -0.51438212       1.43353784
H       -0.96488726      -2.00106049       1.28277230
H       -1.28003967       0.64122510       0.02936199
