21
Properties=species:S:1:pos:R:3 pbc="F F F"
H        0.00000000       0.00000000       0.00000000
H        0.88791460       0.34709048      -0.19798161
H        0.43708134      -0.03136373       0.57763606
H        0.43708134       0.69118416       1.30650401
H        0.15129030       1.01733637      -0.44593114
H       -0.40752774       0.16523260       1.05484080
H        1.07795262       1.21193480      -0.60293913
H       -0.83877373       0.58582085       0.08121882
H        0.69704396       1.49508142       0.24723583
H        0.17122936       0.88706690       0.39360124
H       -0.14186653       0.80110699       0.36698270
H        0.92829299       0.30657041       0.42621392
H        0.17072788       1.46239853       0.10759342
H        0.18171838       1.13096058       0.47617435
H        1.47248614       0.92112929      -1.25508010
H        1.47248614       0.92112929      -1.25508010
H        0.90164673       1.03913736      -0.47515869
H       -0.84091663       0.32714778       1.24446559
H        1.02327347       0.82194990       0.41017461
H        0.81123233       1.62584734       0.68943936
H        0.63633174       2.03631425       0.46032161
