21
Properties=species:S:1:pos:R:3 pbc="F F F"
H        0.00000000       0.00000000       0.00000000
H        0.59380746      -0.49897972      -0.58861941
H       -0.30327249      -0.03543162      -0.40505862
H        1.37272274      -1.11369431      -0.85080415
H        0.47255945      -0.65014625      -1.01859283
H        2.07473779      -1.75656188      -1.23449707
H        1.39791775      -1.84095514      -0.53962046
H        2.05954623      -2.12410164      -1.19546843
H        0.45630330      -0.88408077      -0.44983438
H        1.75816560      -1.55555522      -0.73651731
H       -0.01565260       0.37261143      -0.37720829
H       -1.04035020      -0.77442080      -0.84218824
H       -0.61446071      -0.65641272       0.02542520
H       -1.35913038      -0.32342580      -0.82258165
H        0.02866256      -1.01440990      -0.52826101
H       -1.27221394      -0.58761764      -1.81049466
H       -0.52563536      -0.15612805      -2.36705661
H       -1.32483983       0.39965075      -2.34601164
H       -1.17565203       0.12701857      -1.69969833
H       -0.56135827       0.77810496      -1.87491786
H       -0.00807250      -0.52125716      -1.23049450
