21
Properties=species:S:1:pos:R:3 pbc="F F F"
H        0.00000000       0.00000000       0.00000000
H        0.73469222      -0.22961354      -0.67884368
H        0.65238816      -0.49897972      -0.52294344
H       -0.41364068       0.17895889       0.31980747
H        0.58410954      -0.16479573      -0.62113887
H       -1.41972446       0.30440825       1.35273218
H       -1.42215610       0.25428903       1.35522890
H       -1.42337275       0.15383875       1.35647774
H       -1.45787215       0.25428903       1.31919789
H       -1.45787215       0.25428903       1.31919789
H       -1.45787215       0.25428903       1.31919789
H       -1.49360299       0.20407903       1.28309643
H       -1.45158124       0.35437632       1.31317711
H       -1.42337275       0.20407903       1.35647774
H       -1.45787215       0.25428903       1.31919789
H       -1.45787215       0.25428903       1.31919789
H       -1.42215610       0.25428903       1.35522890
H       -1.45913196       0.20407903       1.32040358
H       -1.45158124       0.35437632       1.31317711
H       -1.38519716       0.25428903       1.38998437
H       -1.42215610       0.25428903       1.35522890
