20
Properties=species:S:1:pos:R:3 pbc="F F F"
H        0.00000000       0.00000000       0.00000000
H        0.63848275      -0.52769721      -0.51179713
H        0.33547771       0.05341591      -0.96846557
H        0.60487407      -0.22961354      -0.79669869
H       -0.84111679       0.27671376       0.86355668
H       -0.99314934       0.15870565      -0.09091759
H       -1.49473643       0.01252189       0.11769623
H       -0.83839107       0.20204270       0.38255024
H       -0.26781720       0.10525046       0.81936032
H       -0.89304084      -0.11186501       0.93977541
H       -0.35067734       0.38845521       1.28661931
H       -0.17734350      -0.02512013      -1.43624282
H        0.00610292       0.18967822      -1.91122794
H        0.24580373       0.61743164      -2.16612458
H       -0.55470294      -0.08718592      -2.00232458
H       -0.79118311      -0.38666227      -1.67922854
H       -0.21379547      -0.19349426      -1.62271392
H        0.97945964       0.22517416      -1.04155207
H        1.23394406      -0.11755145      -0.47355169
H        0.25182566      -0.66161448       0.06080870
