21
Properties=species:S:1:pos:R:3 pbc="F F F"
H        0.00000000       0.00000000       0.00000000
H        0.42330277      -0.73181123      -0.48304045
H       -0.05088013      -1.48547196      -0.08907720
H        0.77941751      -1.13072240       0.39295959
H       -0.07668447      -1.24873054       0.84153986
H        0.09036314      -0.63587439      -0.73181909
H       -0.01722841       0.09488239       0.49061239
H        0.64110219      -0.39817142       1.17293739
H        0.37777758      -0.73684865       0.17398217
H        0.31238773      -1.63779485       0.89305168
H        1.06867862      -0.54357105       0.95837438
H       -0.16419765      -0.69723374       1.12182772
H        0.22813299       0.00867786      -0.44483706
H        1.37279296      -0.85676301       0.71460140
H       -0.14930168      -0.66282856       0.87278110
H        0.51172018      -2.50444984      -0.94933307
H       -0.49706590      -2.52226233      -1.13736892
H        0.40939116      -2.52134895       0.01881158
H        0.19040954      -2.83757091      -0.52416497
H        0.09451640      -2.02236915       0.79336566
H        0.31059271      -2.99341249       0.28861991
