21
Properties=species:S:1:pos:R:3 pbc="F F F"
H        0.00000000       0.00000000       0.00000000
H        0.46564069       0.84879911      -0.10382564
H        0.00000000       0.66108263       0.71486413
H        0.54095995      -0.75366068      -0.29566672
H        1.44726288       1.14725089      -0.07797723
H       -0.29807076      -0.83756196       0.51280367
H        1.40831125       1.24771023      -0.17843160
H       -0.12352119       0.27097964      -0.40163735
H       -0.57191026      -1.22662628       0.79394883
H       -0.04733523      -0.23270816       0.33151269
H        0.65230775      -0.54891449       0.75780761
H        0.08165109      -0.89591789      -0.56806338
H       -0.50164366       0.63232023       0.48480308
H        1.31618214      -0.32536751       1.27108383
H        1.33859825      -0.15668145       1.11740994
H       -0.93609226      -1.64197862       0.77795929
H        0.03134021      -0.61051798      -0.97551358
H       -0.39572418       0.47818056       0.15379655
H        0.17734981      -0.42429134      -0.70374739
H        0.32674512      -1.12324750       1.23703933
H       -0.61303866      -1.25401318       0.72339159
