21
Properties=species:S:1:pos:R:3 pbc="F F F"
H        0.00000000       0.00000000       0.00000000
H       -0.32983679       0.96807545      -0.08579928
H        0.13607804       0.05067664       0.96279573
H        0.38850778      -0.03371657       0.02619660
H        0.01564905       1.38342786      -0.20209062
H        0.77074540       1.76188207      -0.68651080
H        0.85740888       0.79645091      -0.77866828
H       -0.12277572       0.11765421       1.44643855
H        0.88850921       0.54984963       1.14448643
H        0.30147749       0.33201113       1.89014125
H        1.25600564       0.63046294       2.12063265
H        1.62563062       1.18572402       1.16389656
H        1.32685602       1.55956066       2.40315437
H       -0.02915505       1.83291984       0.24540389
H       -0.49100274      -0.21334600       1.69189620
H        1.93034577       1.09601259       1.71449840
H        1.61268890       1.50888407       1.47375011
H       -0.03638738       1.84627533      -0.14848161
H        0.73583674       0.35667446       0.08149326
H        2.12523842       1.89191282       1.85047781
H        1.17039490       1.33457851       0.90180159
