21
Properties=species:S:1:pos:R:3 pbc="F F F"
H        0.00000000       0.00000000       0.00000000
H       -0.90169489       0.25064358      -0.26867270
H       -0.14111878       0.37845421      -0.88595647
H       -1.06800294      -0.74761069      -0.09792779
H       -0.33864069      -0.51622587      -1.34840274
H       -0.08751148      -0.60086495      -0.58365828
H       -0.17758814      -1.52214885      -1.22388458
H       -0.65010190      -0.87928128      -0.57830268
H       -0.07584172      -0.84112751      -0.51144689
H       -0.89098215      -1.23134327      -1.49223816
H       -1.16944456      -0.44560611      -0.80725414
H       -0.95233285      -0.69808298      -1.25790000
H       -0.92375374      -0.67166555      -1.20423639
H       -0.59058559      -0.69808298      -0.56751621
H        0.06108472      -0.48202837      -1.06478691
H       -0.09988838      -2.22665262      -1.27373159
H       -0.07936964      -2.22302723      -1.28689516
H       -0.08403150      -2.22302723      -1.29362953
H       -0.18500341      -2.23242426      -1.24124551
H       -0.79559171      -2.83003044      -1.27279532
H        0.63264406      -1.24092770      -1.08752656
