21
Properties=species:S:1:pos:R:3 pbc="F F F"
H        0.00000000       0.00000000       0.00000000
H        0.38154608      -0.49897972      -0.74397767
H       -0.23169391      -0.99825430       0.05594741
H        0.38078606      -0.24459362      -0.01422914
H       -0.42937142      -1.45006800      -0.02644190
H        0.34434846      -0.96078724      -1.04522824
H        0.16483694       0.10252306      -0.08097738
H       -0.42154247      -1.67589915      -0.47246769
H        0.42120704      -2.11222267      -1.91882110
H        0.52416199      -2.17028308      -1.81960702
H       -0.54776788      -1.33642435      -0.12775916
H        0.57256293      -2.11222267      -1.89198065
H        0.56202638      -2.14196444      -1.85288644
H        0.59023660      -2.14196444      -1.84474969
H        0.50483668      -2.14196444      -1.86616611
H        0.58282459      -2.08109355      -1.93005466
H        0.50483668      -2.14196444      -1.86616611
H        0.48849925      -2.08109355      -1.95021951
H        0.50483668      -2.14196444      -1.86616611
H        0.61814392      -2.14196444      -1.83562779
H        0.55122763      -2.17028308      -1.81281948
