21
Properties=species:S:1:pos:R:3 pbc="F F F"
H        0.00000000       0.00000000       0.00000000
H        0.63772744       0.77136850       0.22719663
H       -0.64259332       0.79439902      -0.09658080
H        0.48433748       0.21558970      -0.55743212
H       -0.52538437       0.83756196       0.27529082
H        1.09795475       0.96925038      -0.49801531
H        0.30071968       1.13723755      -1.08750486
H        0.87958902       1.96750474      -0.40247166
H        0.73163128       1.84631753      -0.57801312
H        0.18557927       1.62016761       0.07500248
H        0.83658719       1.70628166      -0.19632865
H        0.55049968      -0.58399022      -0.40976036
H        0.57301331      -0.57084286      -0.35951066
H        0.88418674       1.50962758       0.14264891
H        1.22665131       1.75093329       0.32639164
H        1.07200515       1.75498748       0.24095085
H        1.26976180       2.27713203       0.09763822
H        1.07306695       2.23097873       0.21071407
H        0.67195141       0.15277797      -0.95102513
H        0.58490825       0.19788188      -0.93971419
H        0.39647418       0.47420231      -1.06031084
