21
Properties=species:S:1:pos:R:3 pbc="F F F"
H        0.00000000       0.00000000       0.00000000
H       -0.30729049       0.46966103      -0.79564559
H       -0.46596441      -0.14023903      -0.05341560
H       -1.42122304      -0.40443090       0.21305662
H       -0.79698837       0.23843667      -0.28731948
H       -0.38053215       0.85689533      -1.62812567
H       -0.57068080       1.12345970      -2.07330942
H       -0.81132460       0.18481439      -1.97793400
H       -0.37741584       0.80720127      -1.59270525
H       -0.01503205       1.30512071      -1.52438474
H       -0.67935532       0.15179041      -0.22691378
H       -0.15519750       0.41490439      -2.12423301
H       -0.53962874       0.76430029      -1.17857838
H       -0.05354649       1.39431024      -1.73758507
H       -0.42458948       0.47021434      -1.84015584
H       -1.36321449      -0.37566847       0.76188219
H       -2.21222854      -0.42360583       0.40802467
H       -0.87012637      -0.31506971       0.70538527
H       -2.62976003      -0.60184145       0.19850248
H       -1.56609750       0.10299438       0.62564236
H       -1.46904349       0.23881033       0.70012951
