21
Properties=species:S:1:pos:R:3 pbc="F F F"
H        0.00000000       0.00000000       0.00000000
H       -0.78841746      -0.36585209      -0.54577839
H       -0.42232993       0.75366068      -0.44910342
H        0.07559246       0.55622131      -0.85920167
H       -1.04243076       0.50301707      -1.15671468
H       -0.19939029      -0.08270547      -1.26753724
H       -0.26102841      -1.17951286      -0.45702142
H       -0.77642524      -0.35462534      -0.65970910
H        0.99561995       0.57220685      -0.89959568
H       -0.60106295       0.76284182      -0.79368085
H        1.65035331       0.56078863      -0.83619761
H        0.94381058      -0.98709130      -0.25425297
H        0.93649924      -0.94480383      -0.25548345
H        0.93649924      -0.94480383      -0.25548345
H        0.93649924      -0.94480383      -0.25548345
H        0.93649924      -0.94480383      -0.25548345
H        1.59084451      -0.40728682      -0.50061977
H        0.97793287       0.53831893      -0.39746967
H        0.97793287       0.53831893      -0.39746967
H        0.97793287       0.53831893      -0.39746967
H        0.97793287       0.53831893      -0.39746967
