18
Properties=species:S:1:pos:R:3 pbc="F F F"
H        0.00000000       0.00000000       0.00000000
H        1.00909960       0.15966894       0.09771150
H        0.11784905      -0.33537912       0.21570992
H        1.75967062       0.76956898      -0.01509812
H        2.17443085       0.03775775       0.47529688
H        2.32219720      -0.02504116      -0.00028548
H        1.92222941       1.72390628      -0.11938518
H        1.75821555       1.63402295      -0.09799799
H        1.29850852       0.53546387      -0.06046765
H        2.11574554       0.82453030       0.00002554
H        1.06945240       0.01872592       0.14159177
H        1.84819043      -1.05861020       0.48636720
H        2.59975791      -1.32280207      -0.16068217
H        2.45263648      -0.87383926      -0.25428495
H        0.94641411      -0.97421700       0.84377205
H        2.26734734      -1.17047322       0.23778294
H        1.46505141      -0.92175639       0.53619015
H        2.32156110       0.55902922       0.36561367
