21
Properties=species:S:1:pos:R:3 pbc="F F F"
H        0.00000000       0.00000000       0.00000000
H       -0.49101692      -0.19475858      -0.87994057
H       -0.17366189       0.39106226      -0.09928477
H       -1.20083952      -0.54184908      -1.44892287
H       -0.33304799      -0.22654057      -1.13976359
H       -0.86103070       0.58535063       0.39460915
H       -1.69002593      -0.56787223      -1.34882545
H       -0.07042027       0.56845164       0.96268523
H       -0.78554940       0.51503575       1.69689298
H       -0.30533201       0.33470705       1.15384412
H       -1.86957014       0.71564543       2.36577034
H       -1.14241898       0.07977104       2.48814631
H       -1.75659418      -0.35003373      -0.40215975
H       -0.80069387      -0.29935709      -0.58033788
H       -2.06310678      -0.31163940      -1.13632751
H       -0.81100518      -0.16983183       2.85320115
H       -1.90322196       0.34979334       3.32407284
H       -0.32102904       0.62689877       1.84422755
H       -1.98146725       1.31902957       3.27387595
H       -2.00488520       2.02810955       3.94074798
H       -0.90242410      -0.21737522       3.02380657
