21
Properties=species:S:1:pos:R:3 pbc="F F F"
H        0.00000000       0.00000000       0.00000000
H       -0.27385142       0.28314662      -0.89044607
H       -0.33299938      -0.51146352      -0.33084166
H       -0.37003264      -0.66108263      -0.61164254
H       -0.45351559      -0.56565249      -0.44849378
H        0.79752231      -0.54301107      -0.37615323
H        1.21829593       0.44740570      -0.45458469
H        1.16661704       0.14895388      -1.43518639
H        1.42760110       0.75885391      -0.72246611
H        1.18425393       0.46166277      -0.44823933
H        0.68155181       0.47276786      -0.11052358
H        1.46551394       0.37412804      -0.03703320
H        0.88442832       0.71871734      -1.07997441
H        0.83871502       0.86478364      -0.70975864
H        0.81087285      -0.96189797      -1.13675201
H        0.78417182      -0.96189797      -1.13675201
H        0.75674629      -0.93524408      -1.14987516
H        1.24015152      -0.02706575      -1.65394640
H        1.18355668       0.06549996      -1.63136923
H        1.05967855       0.32389414      -1.50514603
H        0.90507108      -1.40407133      -0.34204134
