21
Properties=species:S:1:pos:R:3 pbc="F F F"
H        0.00000000       0.00000000       0.00000000
H        0.17388797      -0.66108263       0.69339287
H        0.42639980      -0.84879911      -0.21397252
H       -0.43470851      -0.92740691      -0.06533602
H       -1.06642902      -1.29251349      -0.53627288
H       -0.41173446      -1.13284457       0.23781031
H       -0.45384628      -1.13173151       0.32111019
H       -0.35354120      -0.25328222       0.56187576
H       -1.20141232      -0.93574214       0.33564082
H       -1.16027689      -0.58575249       0.13733107
H       -0.73775172      -1.11977684       0.34015632
H       -1.39964294      -0.99500883      -0.10923404
H       -1.59826136      -0.72198403      -0.00897086
H       -1.56570840      -0.81584930       0.00595838
H       -1.56570840      -0.81584930       0.00595838
H       -1.51912212      -0.67417586      -0.18588412
H       -1.77882981      -0.47845638       0.44907391
H       -1.37344313      -1.89363408       0.71946591
H       -1.35288227      -1.89363408       0.72658819
H       -0.60710454       0.15476084       0.42328832
H       -1.30160058       0.56256706      -0.29022297
