21
Properties=species:S:1:pos:R:3 pbc="F F F"
H        0.00000000       0.00000000       0.00000000
H        0.97460508       0.08895500       0.30912116
H       -0.30055675       0.08895500      -0.97728020
H        0.51307887       0.43977645       0.70100468
H        0.69939733      -0.14065854      -0.95094907
H        0.14141817      -0.49504808      -0.88783562
H        0.67000639       0.38723427      -0.49947867
H        1.37668002       1.02310872      -0.71004218
H       -0.12120377       0.45307535      -1.56045818
H        0.94585156      -1.02274525      -1.03778064
H        1.55141973       0.50557983      -0.80755794
H        0.80055028       0.54203033      -1.11798739
H        1.68844938      -0.00376737      -0.32707137
H        0.52578747       0.70222467      -0.50661427
H        0.21715502       0.53086281      -1.92026711
H        2.23674464       0.02499505      -0.38989380
H        0.60755825       0.63477725      -0.57994390
H        0.70560920      -0.29565877      -0.91539580
H        0.82183266      -0.36959872       0.38345265
H        0.03794143       0.40657601      -0.30431706
H        0.27177638       0.38546583      -0.27805758
