21
Properties=species:S:1:pos:R:3 pbc="F F F"
H        0.00000000       0.00000000       0.00000000
H        0.36925858       0.05341591      -0.95609558
H        0.18303443      -0.74740851      -0.67911917
H       -0.58798146      -0.05067664      -0.77444863
H        0.90003914       0.44564897      -1.52052474
H        0.47414976       0.56365705      -0.65291119
H        1.11759114       0.29416817      -2.45742679
H       -0.20231348       0.24879971      -0.66686547
H        0.14850473       0.37856138      -2.49997473
H        0.21574169      -0.05292231      -2.33802509
H       -0.30043846      -0.20807278      -1.04473436
H        0.08269244      -0.53704137      -0.84145230
H        0.01507759       0.04100451      -2.42839503
H        1.77218986      -0.27296305      -2.39404178
H        1.74223018      -0.29544604      -2.32961297
H        0.74994481       0.10617411      -1.18551946
H       -0.87508082      -0.02512013      -1.15259612
H        0.87206095      -0.37845421       0.21057782
H        0.75060272      -0.35243106       0.69490278
H        0.45173714      -0.22372219       1.07452548
H        1.04175508      -0.35972828      -0.85477674
