21
Properties=species:S:1:pos:R:3 pbc="F F F"
H        0.00000000       0.00000000       0.00000000
H        0.93511528      -0.39891118      -0.14054634
H        1.20995975      -0.66310304       0.81233722
H       -0.03649032      -0.55858010      -0.43004990
H        0.52045238      -0.80639565       0.21871728
H        0.28067648      -0.47833207       1.03673244
H       -0.03343065       0.96046287       0.15637881
H       -0.46856093       0.19078380      -0.10167858
H        0.36397934      -0.09321946       0.26723742
H       -0.51404673       1.12116766      -0.06403866
H       -0.42344898       0.16757306       0.43052733
H        0.72541231      -0.33293247       1.21299648
H        0.13939691      -0.29666343       0.80294257
H        0.44832569       0.13355237       0.55596936
H        0.17383695      -0.29666343       0.54281425
H        0.33299369       0.01465923       0.58421510
H       -1.11944711       0.17990476       0.57294273
H       -1.13362205       0.17990476       0.44922781
H       -1.11098754       0.17990476       0.25168031
H       -1.00756717       0.15524137       0.02617416
H       -0.89370829      -0.00784437      -0.92702937
