21
Properties=species:S:1:pos:R:3 pbc="F F F"
H        0.00000000       0.00000000       0.00000000
H        0.69739223       0.29845181      -0.69129914
H        0.00927508       0.94131935      -1.09939229
H        0.46327913      -0.49594721      -1.29747164
H       -0.75277787      -0.05341591      -0.69555461
H       -1.52692533      -0.11231038      -1.51877892
H       -0.19399288       0.25582516      -1.76033163
H       -1.17426372       0.44391093      -0.73165023
H       -0.05722761      -1.10921693      -2.09336352
H       -0.94323975      -0.99397701      -1.18870401
H       -0.51335204      -0.47334254      -1.51398873
H       -1.11449337       0.46057135      -1.23603678
H       -0.20809221      -0.13795000      -0.77839899
H        0.09098664      -0.29555613      -1.57950592
H       -0.08528502      -0.55343813      -1.29437447
H       -0.17674640       0.31530851      -0.90410298
H        0.23405203      -1.90382707      -2.57483172
H        0.23405203      -1.90382707      -2.57483172
H        0.23405203      -1.90382707      -2.57483172
H        0.23405203      -1.90382707      -2.57483172
H        0.23405203      -1.90382707      -2.57483172
