21
Properties=species:S:1:pos:R:3 pbc="F F F"
H        0.00000000       0.00000000       0.00000000
H       -0.61304885      -0.15966894      -0.80746567
H       -0.57119292       0.74740851       0.41041824
H        0.16544598       0.17268325      -1.38782060
H       -1.20125937       0.56263757      -0.30856499
H       -0.26464328       1.02148235      -1.18136418
H       -0.59062994       1.11556101      -1.00536811
H        0.05163985       1.36212301      -0.12579927
H        0.53904450       0.60990006      -0.53433496
H        0.54886723       0.23473811       0.72963536
H        0.44390285       0.94381803       0.07065958
H        1.23484075      -0.53396034       1.81983852
H        2.22795200      -0.55177277       1.56150389
H        2.17403984      -1.55002713       1.32932794
H        1.22044444      -1.46563387       1.15157962
H        1.90618563      -1.66803527       2.25797701
H        1.26839066      -0.71873128       2.77524161
H        1.07634902      -2.16308331       1.91211236
H        2.29394984      -0.80241632       2.50005770
H        0.82339656      -1.46136725       1.66506779
H        1.06604636      -1.69805050       2.54434180
