8
Properties=species:S:1:pos:R:3 pbc="F F F"
H        0.00000000       0.00000000       0.00000000
H        0.05321160       0.83173102       0.50344110
H        0.32841945       0.49897972      -0.76890886
H        0.36395940       1.38795233      -0.30115670
H        1.00823462       0.67206210       0.84367740
H        1.29903007       0.30422115      -0.49815434
H        0.97061068      -0.19475858       0.27075452
H        1.28479517       1.20318139      -0.04428700
