8
Properties=species:S:1:pos:R:3 pbc="F F F"
H        0.00000000       0.00000000       0.00000000
H        0.36038706      -0.22961354      -0.93312520
H       -0.64778519      -0.79439902      -0.05126777
H       -0.27227685      -0.97916996      -0.93042308
H       -0.91931593      -0.34329557      -1.28406835
H       -1.26961517      -0.21890867      -0.32743764
H       -0.27384260       0.40626085      -1.30926001
H       -0.66601419       0.60990006      -0.36401638
