11
Properties=species:S:1:pos:R:3 pbc="F F F"
H        0.00000000       0.00000000       0.00000000
H       -0.33764970       0.29845181       0.92208624
H       -1.15371943      -0.20052791       0.74012399
H       -0.85424179       1.04586029       0.44476342
H       -0.70530266      -1.03225899       0.97508532
H        0.13317949      -0.56259799       0.81879371
H       -0.72309506      -0.87259007      -0.03857785
H       -0.61288404       0.40998590      -0.25199413
H       -1.25738597      -0.05892926      -0.06203605
H        0.08133835      -0.34489286      -0.18852285
H       -1.15923083       0.23722035       0.52984101
