9
Properties=species:S:1:pos:R:3 pbc="F F F"
H        0.00000000       0.00000000       0.00000000
H        0.19410905      -0.89379078       0.33394706
H       -1.01400745      -0.12438690       0.09818678
H       -0.73951972      -0.84693480       0.77339405
H        0.19904563       0.52769721       0.79371119
H       -0.87441134       0.43139189       0.88538671
H       -0.77598220      -0.42625052       1.44044089
H        0.18326378      -0.34185731       1.29626775
H        0.24490651      -1.08926582       0.59562188
