10
Properties=species:S:1:pos:R:3 pbc="F F F"
H        0.00000000       0.00000000       0.00000000
H       -0.02074104      -0.97334045      -0.01546210
H        0.77030754      -1.13300943      -0.64955348
H        0.35074484      -0.01689900      -0.90815932
H        1.30356336      -0.07031491      -0.53052485
H        0.90504646      -0.01689900       0.35870081
H        1.24540341      -1.09472203      -0.50747406
H        0.92303336      -1.09091747       0.46013099
H       -0.04890147      -0.81150913      -1.30431390
H        0.51382983      -0.46441865      -0.58952546
