9
Properties=species:S:1:pos:R:3 pbc="F F F"
H        0.00000000       0.00000000       0.00000000
H        0.63848275      -0.52769721      -0.51179713
H       -0.34983543       0.33235219      -0.90580416
H        0.11115062      -0.40331030      -1.38344646
H       -0.61125785      -1.03918469      -1.23562694
H       -1.02728868      -0.35314199      -0.76718342
H       -0.14788902      -1.33763647      -0.36986732
H       -0.64353031      -0.70176208       0.17608535
H        0.10746121      -1.38533962      -0.32261562
