21
Properties=species:S:1:pos:R:3 pbc="F F F"
H        0.00000000       0.00000000       0.00000000
H        0.87909138       0.39891118       0.34841394
H        0.78019595       0.14826760       1.28407323
H        1.39148939      -0.45873123       0.11342086
H        0.27839044      -0.77460212       0.52014548
H        0.53251779      -1.72020793       1.08734906
H       -0.32917267      -1.16398668       1.04951632
H        1.08874750      -1.19060683       0.65652454
H        0.94257903      -0.33434433       1.02793241
H       -0.32917267      -0.01215482       1.32453907
H        0.38064870      -0.53486323      -0.98558724
H        0.79606366      -1.28227174      -0.41801792
H       -1.00806725      -0.35924530       1.93008947
H       -0.37757781      -1.17773080      -1.24080813
H        0.21853706      -1.87454748      -0.77992040
H        0.74178469      -2.05931854      -1.58000326
H       -0.63741815       0.19242162       2.56775761
H       -0.24453893       0.80232167       1.91835117
H        0.43154722      -0.53985202       1.62603831
H        0.31988102      -1.35023856      -2.09697890
H       -0.21787417      -0.91546661       2.27583027
