8
Properties=species:S:1:pos:R:3 pbc="F F F"
H        0.00000000       0.00000000       0.00000000
H       -0.73394406      -0.63587439       0.07106813
H       -0.64964813      -0.78735518      -0.88705957
H        0.56166029      -0.79461014       0.03454500
H       -0.15251583      -1.45569277       0.00318889
H       -0.04042190      -1.60382760      -0.76239955
H        0.71831632      -0.99392754      -0.74242020
H        0.14432591      -0.17745513      -0.98165166
