11
Properties=species:S:1:pos:R:3 pbc="F F F"
H        0.00000000       0.00000000       0.00000000
H       -0.46163812      -0.66108263       0.54582143
H        0.64258742       0.18477097       0.70781487
H        0.33535132      -1.21686149       0.48274514
H        0.78153849      -0.75331342      -0.31685737
H        1.45245457      -0.25826535       0.28157625
H        0.63738161      -0.67583513      -0.54874301
H        1.52578497      -0.85275698       0.00949579
H       -0.10644567      -0.22130617       1.33859873
H        0.55625182      -0.90680039       1.14113855
H        0.92966545      -0.37910318       0.41301847
