20
Properties=species:S:1:pos:R:3 pbc="F F F"
H        0.00000000       0.00000000       0.00000000
H       -0.02481474      -0.91159266      -0.47085762
H        0.89416140      -0.15148079       0.35438669
H        0.88928944      -1.12943113      -0.21586573
H       -0.36965042      -1.37514079       0.37739670
H        0.52848291      -0.48383299       1.25391173
H        1.19468427      -0.96957684       0.05648947
H       -0.33142406      -0.20068637       0.89551419
H        0.54504865      -1.70749295       0.70326722
H        0.55202514      -1.34867740       0.80720061
H        0.74139208       0.61225259       1.55747771
H        1.59523869       0.63006502       2.12664604
H        1.09004045       1.12511313       2.87030315
H        1.31105804      -0.24662435       2.57828856
H        0.34523705       0.11720452       2.36451697
H        0.87774867       0.26747072       3.39251542
H        0.38886109       1.25512016       2.27564716
H        0.78680056       0.52284551       1.58549619
H        0.06119239       0.21131553       2.68951488
H       -0.12576807      -0.79914153       0.60537714
