21
Properties=species:S:1:pos:R:3 pbc="F F F"
H        0.00000000       0.00000000       0.00000000
H       -0.53245163       0.67024595      -0.56620628
H       -1.39228356       0.11402464      -0.63425606
H       -0.29743883       0.11446714      -1.33036578
H       -0.89826781      -0.61778659      -0.22381514
H       -0.58135337      -1.06206048      -0.96578801
H       -1.21984529      -0.56701243      -1.59870124
H       -0.40711600       0.04770213      -1.72085309
H        0.18083143      -0.55577880      -0.77876234
H       -1.19295764      -0.15381673      -1.49266624
H       -1.92198873      -0.48777542      -1.31243467
H       -0.87311316      -0.57120931      -0.56013179
H        1.06522751       1.05603170      -0.00934803
H        1.93949914       0.90455091      -0.41030151
H        2.14175057       1.91047394      -0.43347502
H        1.20224643       2.02848196      -0.20661178
H        2.35755301       0.99350590       0.52278042
H        1.45167422       1.03821921       0.94126517
H        2.56081486       1.96388984       0.50186229
H        1.56887543       2.04538107       0.69525206
H        1.02603769       1.09236634       0.06310662
