12
Properties=species:S:1:pos:R:3 pbc="F F F"
H        0.00000000       0.00000000       0.00000000
H        0.88791460       0.34709048      -0.19798161
H        0.81048769      -0.06227148      -1.07803214
H        1.74995923       0.33663970      -1.18567467
H       -0.01513714      -0.55622131      -0.86238772
H        2.00350761      -0.29923469      -0.49326020
H        1.31101120      -0.46657032       0.12913661
H        0.51742756      -0.81647241       0.34491363
H        1.25438094      -0.79840767      -0.68812788
H        1.35541511       0.83561945      -0.44850773
H        0.65009427      -1.11200011      -0.41894901
H        1.56384325      -0.19392121      -0.20207107
