8
Properties=species:S:1:pos:R:3 pbc="F F F"
H        0.00000000       0.00000000       0.00000000
H        0.12529835      -0.08895500      -1.01474690
H        0.43173385       0.89036417      -0.99589956
H        0.37700465       0.89379078      -0.08406213
H       -0.54793561       1.14443433      -0.25646922
H       -0.45542687       1.26881838      -1.12923849
H       -0.92125821       0.28314662      -0.13846369
H       -0.82846308       0.31315309      -1.15876174
