21
Properties=species:S:1:pos:R:3 pbc="F F F"
H        0.00000000       0.00000000       0.00000000
H       -0.93989587      -0.24138860      -0.47165081
H       -0.40700665       0.55622131       0.76045203
H       -0.16438043      -0.83756196       0.56990600
H       -1.05200624      -0.40607238       0.85143936
H       -1.22377419       0.43183440       0.15156567
H       -2.02126074       0.03375280       1.23558807
H       -0.66125822      -0.22951585       1.45478666
H       -1.10339522      -1.01599073       0.09520057
H       -2.34071875       0.80512130       1.83246422
H       -1.49122322      -0.21660602       0.74850273
H       -1.25594068      -0.17099340       1.96804380
H       -1.05996299       0.82726091       1.83237910
H       -1.69816744       1.11040759       1.15371585
H       -1.47896063       0.37767589       0.64049995
H       -0.20569575       0.84415990       1.36547136
H       -1.26277971       0.50028455       2.21649051
H       -1.55673385       0.48981279       2.31620932
H       -0.79806942       0.21173728       1.42283118
H       -1.06792784       0.52885139       1.04113019
H       -0.88320804       0.18307728       1.13741910
