9
Properties=species:S:1:pos:R:3 pbc="F F F"
H        0.00000000       0.00000000       0.00000000
H        0.35866648      -0.83756196      -0.47241095
H       -0.49022913      -1.36351347      -0.23560901
H       -0.08788396      -0.49897972       0.83147854
H        0.68218690      -1.08820558       0.41108957
H       -0.07655132      -1.69810557       0.43106887
H       -1.03728223      -0.67801929       0.18734662
H       -0.65612441      -1.00128889       0.91259289
H       -0.48707962       0.17962313       0.06466591
