11
Properties=species:S:1:pos:R:3 pbc="F F F"
H        0.00000000       0.00000000       0.00000000
H        0.52815789      -0.26419187       0.83939010
H       -0.17020600       0.89379078       0.34674037
H        0.55106729       0.77578270       0.99009079
H       -0.71542490      -0.17478335       0.55313277
H       -0.95130777       0.74230999       0.90798402
H       -0.38323116       0.59082919       1.68413043
H       -0.16824773      -0.28804702       1.51180327
H       -0.18707900      -0.11825073       1.04632878
H        0.03322232       0.82645935       1.81309104
H       -0.44685057       0.88535380       0.79008937
