21
Properties=species:S:1:pos:R:3 pbc="F F F"
H        0.00000000       0.00000000       0.00000000
H        0.05110265      -0.33235219      -0.96966726
H        0.67411071      -1.07976067      -0.64322364
H        0.91635579      -0.49656987       0.09790170
H        0.05726403      -1.66295147      -0.16630688
H       -0.68119222      -1.02008390      -0.47408539
H       -0.62753075      -0.63587439       0.38720766
H        0.23667379      -1.11128449       0.54910457
H       -0.79129779      -1.01011443      -0.63579512
H       -0.81265783      -0.97825730      -0.62732935
H        0.43185496      -2.31194234      -0.48880470
H        0.43185496      -2.31194234      -0.48880470
H        0.43185496      -2.31194234      -0.48880470
H        0.42030632      -2.31194234      -0.50175214
H       -0.85459977      -0.73870623      -0.32564259
H       -0.04881594      -2.01950359      -0.70893300
H       -1.00742614       0.01003075       1.23512101
H       -1.00742614       0.01003075       1.23512101
H       -1.00742614       0.01003075       1.23512101
H       -1.00742614       0.01003075       1.23512101
H       -1.00742614       0.01003075       1.23512101
