10
Properties=species:S:1:pos:R:3 pbc="F F F"
H        0.00000000       0.00000000       0.00000000
H        0.54069358       0.79439902       0.36042264
H       -0.29010814       1.35062027       0.59217727
H       -0.71946025       1.09997666      -0.24501765
H        0.31858736       1.09285080      -0.59609151
H       -0.01682847       0.36585209      -0.95874548
H       -1.02481246       0.19331974      -0.42610914
H       -0.94037479       0.64899874      -0.83647120
H       -0.99564630       0.13076572       0.39460874
H       -0.66711277       0.45682949       0.50811505
