11
Properties=species:S:1:pos:R:3 pbc="F F F"
H        0.00000000       0.00000000       0.00000000
H       -0.51304650      -0.77136850      -0.44169885
H       -0.19804287      -1.43245113       0.20002025
H        0.78087741      -0.97883385       0.19142962
H        0.74824280      -0.12438690      -0.69136417
H       -0.28213423      -0.78958356       0.99561673
H        0.34056076       0.17478335       0.83773923
H        1.23278856      -0.26767954       0.07871401
H        0.43546492      -0.18784812       0.53285038
H        0.37498689      -0.85119992      -0.67269993
H       -0.54622197      -0.34530964       0.23324138
