9
Properties=species:S:1:pos:R:3 pbc="F F F"
H        0.00000000       0.00000000       0.00000000
H        0.50912565      -0.18477097       0.80914259
H       -0.26772654       0.11368084       1.40976810
H       -0.74039871       0.02928763       0.56270272
H       -0.96339262      -0.91777426       0.60023153
H       -0.13247651      -1.01761651      -0.01517888
H        0.41387558      -1.20639825       0.83214271
H       -0.42970175      -1.04672933       1.39446557
H       -0.44905591      -0.86563832       1.65751314
