8
Properties=species:S:1:pos:R:3 pbc="F F F"
H        0.00000000       0.00000000       0.00000000
H        0.52691501       0.55577880      -0.60127473
H       -0.07277602       0.29158694      -1.39114642
H       -0.65491062      -0.18477097      -0.69642848
H       -1.14486957       0.62888980      -0.48205203
H       -0.57755578       1.12914896      -1.07968032
H        0.02380824       1.28851056      -0.35976762
H       -0.64075708       0.64227217       0.19237024
