21
Properties=species:S:1:pos:R:3 pbc="F F F"
H        0.00000000       0.00000000       0.00000000
H        0.47219095      -0.55577880       0.64514065
H        0.00925052      -0.24047029       1.44158757
H       -0.85640717      -0.31530851       0.33942348
H       -1.06384158       0.61209840       0.72699440
H       -0.15327328       0.86274195       0.49013138
H       -0.80394679       0.16290513       2.11721277
H       -0.41018847      -0.71421969       1.17313969
H        0.24190545       0.74473387       1.37215674
H       -0.81910998       0.80914354       1.25334167
H       -0.59250969      -0.94618964       2.19253922
H       -0.50980926      -0.91685712       2.28474641
H       -0.61785936      -0.92795300       2.35358334
H       -0.62696362      -0.91067004       0.46828103
H       -0.62696362      -0.91067004       0.46828103
H       -0.62696362      -0.91067004       0.46828103
H       -0.62696362      -0.91067004       0.46828103
H       -0.31756020      -0.44637832       2.04950643
H       -0.18245061      -0.29821497       1.96270502
H       -0.13276184      -0.26994577       1.93076289
H       -0.29857844       0.24047029       0.91213453
