21
Properties=species:S:1:pos:R:3 pbc="F F F"
H        0.00000000       0.00000000       0.00000000
H        0.42330277      -0.73181123      -0.48304045
H        0.16975430      -1.36768556       0.20937407
H       -0.41027588      -0.89148015      -1.06008148
H       -0.85423696      -1.30084205      -0.29628682
H        0.11700985      -0.49897972       0.82788211
H       -0.93293464      -0.21783850      -0.17389722
H       -0.68221998       0.08783901      -0.91758823
H       -0.81606829      -0.68375069       0.61983001
H        0.11476225       0.58681870      -0.66480476
H       -0.43508002      -1.45711136      -0.19202918
H       -0.08819008       1.86813402      -1.41782618
H        0.56390333       2.63950253      -1.23592293
H       -0.16709459       3.27537680      -1.13914144
H       -0.72746176       2.52171612      -1.39613390
H       -0.79403007       2.30387759      -0.44946820
H       -1.87910426      -0.10072660       1.50302732
H       -0.12149488       1.65029550      -0.46940750
H       -0.19942361       2.97462893      -0.23763382
H        0.51456088       2.35937548      -0.26766598
H       -2.08553076       0.25727060       2.32616997
