9
Properties=species:S:1:pos:R:3 pbc="F F F"
H        0.00000000       0.00000000       0.00000000
H       -0.04850490       0.68549418       0.68978679
H       -0.89212191       0.11800810      -0.37182432
H       -0.90866935       1.02960074       0.09939629
H       -1.44220483       0.47337943       0.77709949
H       -0.47251377      -0.64286757       0.64558190
H       -1.49849451      -0.25843179       0.13729888
H       -0.55201924       0.10230339       1.28512096
H       -1.37187254      -0.69628346       0.15402883
