21
Properties=species:S:1:pos:R:3 pbc="F F F"
H        0.00000000       0.00000000       0.00000000
H        0.85755634      -0.19475858       0.52914101
H       -0.30458406      -0.91843063       0.10851098
H       -0.16201457      -0.79404372       1.11723578
H       -0.62395418       0.11754894       1.21175802
H        0.64454085      -1.14182043       0.60502982
H        0.53123975       0.02307992       1.42027783
H       -0.61362886       1.08415532       0.62350935
H       -0.38784796       0.32153171       1.07454956
H       -1.30371451       1.57984996       0.44399977
H       -2.42578697       1.67792857       0.55265051
H       -2.02429128       0.73582488       0.62022024
H       -2.24860668       0.47163302      -0.34580731
H       -0.47520259       0.39891118       0.81754285
H       -1.81469285       1.79593670      -0.19614780
H       -2.38770008       1.28856146       0.58751559
H       -0.45612532       0.65691900       1.81160438
H       -2.37438726       1.44270539       0.78359115
H       -0.91495693       0.74661505       1.36474013
H       -0.71698952       0.41336304       1.72168922
H        0.86907846       0.05067664      -0.43611401
