10
Properties=species:S:1:pos:R:3 pbc="F F F"
H        0.00000000       0.00000000       0.00000000
H        0.21426670       0.05341591       1.00227761
H       -0.73158455       0.35186774       1.26612568
H       -0.74285638       1.08367896       0.62395257
H       -0.94849032      -0.15148079       0.15962639
H       -1.34648728       0.46896440       0.06620735
H        0.29988748       0.98251361       0.72387600
H       -0.52339435       0.48494995      -0.34683055
H       -0.00658768       0.70477343      -0.27264833
H       -1.17308068      -0.11779329       0.53635824
