21
Properties=species:S:1:pos:R:3 pbc="F F F"
H        0.00000000       0.00000000       0.00000000
H        0.93511528      -0.39891118      -0.14054634
H        0.96538490      -0.95513248       0.72144288
H        0.52574492      -1.17027974      -0.67974067
H        0.45750523      -1.64062667       0.25217026
H       -0.12482114      -0.66108263       0.70388240
H       -0.42541528      -0.61471456      -0.70318681
H       -0.71897578      -1.19164705      -0.04797000
H        0.38219291      -1.20053542      -0.94382524
H        0.09776968      -1.71934426       0.00226407
H       -0.93977112      -0.47928637      -0.54223424
H        0.25293303      -0.87073928       0.06314880
H        0.17070758      -0.83712441       0.17133117
H       -0.66230446      -1.43524444      -1.56327248
H       -0.66230446      -1.43524444      -1.56327248
H       -0.66230446      -1.43524444      -1.56327248
H       -0.66230446      -1.43524444      -1.56327248
H       -0.66230446      -1.43524444      -1.56327248
H       -0.66230446      -1.43524444      -1.56327248
H       -0.66230446      -1.43524444      -1.56327248
H       -0.66230446      -1.43524444      -1.56327248
