10
Properties=species:S:1:pos:R:3 pbc="F F F"
H        0.00000000       0.00000000       0.00000000
H       -0.81573808      -0.52769721      -0.06456009
H       -0.35229009       0.55577880       0.71767855
H       -1.26523972       0.30986476      -0.45155105
H       -0.46339989       0.86608607      -0.13375452
H       -1.43522739       0.32676375       0.50703096
H       -1.10458732      -0.61533993       0.74460530
H       -0.64274371       0.75825334       0.99601996
H       -0.31013119      -0.34749857       1.12596905
H       -1.06847584       0.07138830       1.06595123
