8
Properties=species:S:1:pos:R:3 pbc="F F F"
H        0.00000000       0.00000000       0.00000000
H       -0.32983679       0.96807545      -0.08579928
H        0.15129681      -0.15148079      -0.94985455
H        1.06098104       0.19560969      -0.95783758
H       -0.37978104       0.75023699      -1.03348744
H        0.92678821       0.56146181      -0.00838065
H        0.52906263       1.09732747      -1.07339048
H        0.61487138       1.36698663      -0.12727691
