9
Properties=species:S:1:pos:R:3 pbc="F F F"
H        0.00000000       0.00000000       0.00000000
H       -0.49101692      -0.19475858      -0.87994057
H        0.07288510       0.55264992      -1.30032015
H       -0.65138721       0.68549418       0.23206294
H       -1.08417892       0.56110728      -0.69018596
H        0.57534993       0.63587439      -0.46119091
H       -0.60460174       1.30005836      -1.11133325
H       -0.15569124       1.42444527      -0.19682187
H        0.75402439       0.96089721      -0.30105501
