21
Properties=species:S:1:pos:R:3 pbc="F F F"
H        0.00000000       0.00000000       0.00000000
H        0.50421435      -0.31530851      -0.77097952
H        0.63719434      -1.30572534      -0.36414018
H        0.76925915       0.05067664       0.59475470
H        0.03933549      -1.18771720       0.39526734
H        0.75492716      -0.82186508       1.03355002
H        1.31902778      -0.11056231      -0.09401166
H       -0.91661966      -1.00294626       0.38687840
H       -0.06868958      -1.00467384       0.38734931
H       -1.73515403       0.25053120       0.29309243
H       -1.50595284      -0.33265960      -0.45217007
H       -0.58562207      -0.01735109      -0.49257740
H        0.99892509      -1.06890333       0.28446418
H       -1.31974924      -0.49371606       0.28201371
H       -1.31974924      -0.49371606       0.28201371
H       -1.33661032      -0.50847924       0.27762771
H       -2.35221386      -1.08101571      -0.04087713
H       -2.35221386      -1.08101571      -0.04087713
H       -2.35221386      -1.08101571      -0.04087713
H       -2.35221386      -1.08101571      -0.04087713
H       -2.35221386      -1.08101571      -0.04087713
