21
Properties=species:S:1:pos:R:3 pbc="F F F"
H        0.00000000       0.00000000       0.00000000
H        0.42017129      -0.49897972       0.72286665
H        0.10496442      -0.70907992      -0.65897578
H        0.17828080      -1.31058264       0.03467900
H        1.36331773      -0.30422115       0.36808830
H        1.15461171      -1.18619573      -0.25623277
H        1.11668086       0.39259559      -0.34390938
H        1.06700742      -0.52511311      -0.96570873
H        0.99794668       0.08895500      -0.22251588
H        0.94864762      -2.58293748       0.25041422
H        1.73698807      -2.63635349       0.90538764
H        0.27019173      -2.53226089       0.94697046
H       -0.40968138      -2.15380669       0.36164498
H        0.94028276      -1.58468318       0.48862046
H       -0.90385658      -3.50924778       0.77221835
H        3.06064224      -2.76636457       1.59895563
H        2.17301631      -2.33487511       1.88048899
H        2.70977545      -3.66104460       1.95918322
H       -0.14755017      -3.32447672       1.35695863
H        2.95346880      -2.97194242       1.71628523
H       -1.09760022      -3.20983839       1.17501116
