21
Properties=species:S:1:pos:R:3 pbc="F F F"
H        0.00000000       0.00000000       0.00000000
H        0.68725604      -0.43977645       0.53135377
H        1.32062125       0.29203478       0.63794601
H        1.02790356       1.10569561       0.19035983
H        2.16155171       0.04139119       0.21595705
H        2.40314198       0.65610576      -0.56958985
H        1.98437881      -0.83845645      -0.16158602
H        1.14299703      -1.12527061       0.01129735
H        1.71295607       1.34159994      -0.52713996
H        2.12906504      -0.79051912      -1.06993937
H       -0.01467364      -0.49897972      -0.83598137
H        1.22761512      -1.05471098      -1.48335731
H        0.19616951       0.93864530      -0.16888885
H        2.38767505       0.13015419      -1.45075941
H        0.28545412       1.06303215      -1.18371892
H        0.09870432       0.13562524      -1.58166969
H        1.63002706       0.46250638      -2.05807781
H        0.64477503      -1.21422565      -0.88155526
H        1.24028397       1.25720668      -1.37420535
H        1.23347485       1.23710847      -1.62127256
H        0.88725531      -0.23823857      -2.00379157
