21
Properties=species:S:1:pos:R:3 pbc="F F F"
H        0.00000000       0.00000000       0.00000000
H       -0.53245163       0.67024595      -0.56620628
H       -1.46303320       0.33789375      -0.84348613
H       -0.08819264       0.65334696      -1.43246794
H       -1.58617544      -0.49383727      -0.35244599
H       -1.67377973      -1.15491986      -1.06192195
H       -0.94798416      -1.85173655      -0.85945928
H       -0.19520622      -1.79832065      -1.55501390
H       -0.63605583      -0.70907992       0.20174149
H       -0.63829291       0.30625647      -2.15702200
H       -0.24513525      -1.54664183      -0.24434692
H       -1.53266084      -0.77646565      -1.94787836
H       -1.52566981      -0.54941100      -0.28448546
H       -0.73865330      -1.36965370      -1.66183758
H       -0.73865330      -1.36965370      -1.66183758
H       -0.73865330      -1.36965370      -1.66183758
H       -0.73865330      -1.36965370      -1.66183758
H       -0.73865330      -1.36965370      -1.66183758
H       -0.73865330      -1.36965370      -1.66183758
H        0.29189551      -1.08098936      -0.64469445
H        0.29189551      -1.08098936      -0.64469445
