20
Properties=species:S:1:pos:R:3 pbc="F F F"
H        0.00000000       0.00000000       0.00000000
H        0.58115071      -0.52769721      -0.57607329
H        0.32397828      -1.46634245      -0.60553956
H        1.50290477      -0.43874222      -0.13360256
H        1.74153316      -1.34539914       0.12924838
H       -0.62753075      -0.63587439       0.38720766
H        1.41502082       0.06023750       0.69787598
H        0.49592441       0.43148959       0.78816211
H        1.88513982      -1.36321163       1.14531124
H        0.18744624       0.05303538       1.63058400
H       -0.42759085      -1.52966523       0.05671865
H        0.93692118      -0.50318593       2.05746698
H       -0.13782793      -2.11548615       0.84803098
H        1.19482040      -2.06002831       1.44735336
H        1.75963020      -0.48537347       1.44415104
H       -0.22848791      -1.55926490       1.70577359
H        0.83013088      -2.37967801       0.63220161
H        1.12030983      -1.96139050      -0.18827793
H       -0.52520198      -0.61897540       1.35535240
H        0.65697134      -1.44125676       2.09319711
