21
Properties=species:S:1:pos:R:3 pbc="F F F"
H        0.00000000       0.00000000       0.00000000
H        0.83968246      -0.37845421      -0.31585881
H       -0.70310861      -0.74740851       0.01851445
H        0.24331933       0.22961354       0.97025621
H        0.68897873      -1.37670851      -0.50052220
H       -0.93706977      -0.89888930       0.95145422
H        1.22974813       0.00000000       1.13626730
H        1.58708084      -0.34709048       0.29966557
H        1.26242006      -1.99142313       0.08821797
H       -0.70781296      -1.80554628       1.22251773
H        0.75624532      -2.51912022       0.73116720
H       -0.16501290      -2.23597360       0.59270352
H       -0.00472528      -1.61078775       1.94436312
H       -0.32062060      -1.59620762      -0.26662400
H       -0.35849416      -0.32660776       1.58812523
H        1.85659111      -1.24088120       0.57636607
H        1.27989268      -0.66108263       1.84937048
H        1.67953897      -1.45569277       1.45321596
H        0.18384112      -0.61253345       2.09015369
H        0.88034534      -2.00969887       1.61143088
H        1.15905392      -0.41777486       1.83647490
