20
Properties=species:S:1:pos:R:3 pbc="F F F"
H        0.00000000       0.00000000       0.00000000
H       -0.47549847       0.19475858       0.88842231
H        0.72077233       0.72254789      -0.10833093
H       -0.64646763       0.08895500      -0.79214305
H       -1.38606679       0.44540215       0.65155935
H        0.50147617       1.30836868      -0.92199355
H       -1.59222102       0.40271205      -0.37833852
H        0.63438648       1.33726239       0.70897400
H       -0.09440893       1.02195382       1.27244425
H        0.30146801       2.22679925      -0.66794080
H        0.39778894       2.29292774       0.41906145
H       -0.51863050       2.52254128       0.82003123
H       -0.35806054       0.90945750      -1.31618953
H       -1.86055636       1.34481573      -0.68454206
H       -0.84980422       1.70606887       1.34635878
H       -1.56757128       1.41347766       0.94002068
H       -0.68913716       2.42155790      -0.85258770
H       -1.16955280       2.60632896      -0.02607614
H       -1.86055636       1.95471573       0.07445920
H       -1.02408504       1.61853743      -1.27522576
