21
Properties=species:S:1:pos:R:3 pbc="F F F"
H        0.00000000       0.00000000       0.00000000
H        0.85755634      -0.19475858       0.52914101
H       -0.53313851      -0.81366080      -0.04219427
H       -1.42158484      -0.72470582       0.46384332
H       -1.43587327       0.21739787       0.87073433
H        0.84169436      -1.14182043       0.75471383
H       -0.05895561      -1.56732154       0.35176903
H       -1.47008979      -1.41020000       1.15363014
H        0.80581188      -1.23077548       1.77653742
H       -0.06700468      -1.69432354       2.05337358
H       -0.62521493      -1.05145597       2.62647605
H       -0.55025530      -1.95851541       1.18735075
H       -1.47335291      -0.85669738       2.08236670
H       -0.52958411       0.60990006       0.54371274
H       -0.15782380      -0.20265687       2.72211385
H        0.75060266      -0.39848721       2.16716003
H        0.82821345       0.30422115       1.36473608
H        0.00313872       0.83951360       1.39035773
H       -0.63172990       0.50642306       2.25234842
H       -0.13380888       0.85351354       1.49099183
H       -1.47674239       0.09763998       1.88926136
