21
Properties=species:S:1:pos:R:3 pbc="F F F"
H        0.00000000       0.00000000       0.00000000
H        0.35866648      -0.83756196      -0.47241095
H       -0.30458033      -1.60893047      -0.33669716
H       -0.78964525      -0.21783850       0.52637213
H        0.30915019      -0.58691835      -1.41197836
H       -0.34367892      -1.19681835      -1.79914379
H       -0.99205559      -1.29362202       0.27650696
H       -0.07671839       0.35518533      -1.54186261
H       -0.19548064       0.71318257      -0.70158201
H       -0.73393250      -1.85957408      -1.17389202
H       -1.04805470      -1.19715762       0.36059368
H        0.13087636      -0.11519811      -0.21150267
H        0.13310134      -0.15620476      -0.21328616
H       -0.30007720      -0.43257231       1.52371025
H       -0.30007720      -0.43257231       1.52371025
H       -0.30007720      -0.43257231       1.52371025
H       -0.30007720      -0.43257231       1.52371025
H       -0.30007720      -0.43257231       1.52371025
H       -0.30007720      -0.43257231       1.52371025
H       -0.30007720      -0.43257231       1.52371025
H       -0.30007720      -0.43257231       1.52371025
