21
Properties=species:S:1:pos:R:3 pbc="F F F"
H        0.00000000       0.00000000       0.00000000
H        0.47219095      -0.55577880       0.64514065
H        0.17191106      -0.43777069       1.56381738
H       -0.59511757      -0.43977645      -0.63284492
H       -1.58232951      -0.24501787      -0.43084127
H       -2.04704118      -1.05867863      -0.16615266
H       -0.51508427       0.24772349       1.48510289
H       -0.46804661      -1.38683832      -0.44579500
H       -1.55891168       0.46406204       0.23603070
H       -2.37616372      -0.85393244       0.84076566
H       -1.36820114      -0.18376610       1.85837531
H       -1.37007785      -1.83004713      -0.17209344
H       -1.99826765      -0.36853707       1.13939214
H       -0.60880476       0.58582085       0.58266157
H       -1.16994023      -1.16308522       2.09279060
H       -1.83841014      -1.49679995       1.43310535
H       -1.26801443      -2.16239929       0.79354060
H        0.15987766      -1.43751490       0.29663616
H       -2.05483603       0.03257245       1.02419293
H       -0.23646459      -1.33245075       1.85724688
H       -0.29740375      -1.96764076       1.06429505
