21
Properties=species:S:1:pos:R:3 pbc="F F F"
H        0.00000000       0.00000000       0.00000000
H        0.15274149      -0.33235219      -0.95892441
H        0.25836679       0.93864530       0.01589089
H        0.43229598       0.47857371      -1.61342871
H       -0.85707200      -0.14329264       0.30534008
H       -0.73011792      -0.64766073      -1.22198486
H       -1.24477947       0.73655498       0.45900181
H       -0.54201955       1.39763761       0.32800859
H        0.47390202       1.31613564      -1.02175093
H       -1.37977290      -0.52965266      -0.50638491
H        0.44676793       1.23709714      -0.94782865
H        0.50396937       0.32276824      -2.19388628
H        0.50396937       0.32276824      -2.19388628
H       -1.01815426      -0.09188193      -1.96777701
H        1.49208093       0.04502806      -2.52648687
H       -2.09719014       0.14059329      -0.80539465
H       -1.32007611       1.60238385      -0.39090317
H       -0.72862899       1.58457136      -1.22947156
H        1.44256461       0.29567164      -3.46605420
H        0.61002600       0.73544812      -3.71412086
H       -2.23486233       1.13883579      -0.43106714
