20
Properties=species:S:1:pos:R:3 pbc="F F F"
H        0.00000000       0.00000000       0.00000000
H        0.50421435      -0.31530851      -0.77097952
H        0.65354043      -1.37281752      -0.61766958
H        0.51017654       0.60990006       0.56196332
H        0.30661470      -1.68812609       0.23572600
H       -0.17169267      -0.87165368       0.63311595
H        1.72342348      -1.46633434      -0.51407242
H        0.99409014      -2.00343466       0.84892994
H        1.40736675       0.69885504       0.07159558
H        2.10259438       0.41570842       0.69171429
H        2.52158523      -0.35889369       0.27638409
H        2.05915403      -0.57673216      -0.55232859
H        1.34003472       0.18367121      -0.74897039
H        2.40394473      -1.15350389       0.82667148
H        1.90793705      -1.91447961       0.39035067
H        1.88043988      -0.87035728       1.59727621
H        1.61151791       0.00851893       1.53731358
H        0.24648401      -0.65381515       1.48501706
H        0.99409014      -1.42024386       1.62864113
H        0.70786375       0.21098888       1.48668694
