8
Properties=species:S:1:pos:R:3 pbc="F F F"
H        0.00000000       0.00000000       0.00000000
H       -0.61304885      -0.15966894      -0.80746567
H       -0.33189824       0.74740851       0.62011933
H       -1.52079511       0.30387914      -0.68728328
H       -1.24347115       0.89888930       0.31328169
H       -1.38465106       0.88706994       0.08044988
H       -0.31820709       0.05816956       0.09457397
H       -1.10164797      -0.17522892      -0.52116096
