20
Properties=species:S:1:pos:R:3 pbc="F F F"
H        0.00000000       0.00000000       0.00000000
H       -0.39122835      -0.01598554      -0.83368021
H        0.82182598       0.61471456      -0.00721203
H        0.69202739       1.49140394       0.51037079
H       -0.62887782       0.58582085       0.56093717
H       -0.16064930       1.38043094       0.87305510
H       -1.43085384       0.81543440      -0.03692234
H       -0.62784511       2.13409162       0.47083062
H       -1.30686069       0.44756255      -0.84171528
H        0.14052323       0.42828837      -1.44047403
H        0.76757592       2.24506474      -0.10146981
H        0.91472280       0.77537882      -0.96276689
H        0.83828741       1.74461508      -1.01567888
H        0.03631139       1.97422862      -1.61353838
H       -0.38756320       1.16009963      -1.80603945
H       -1.44069481       1.83984160      -0.09870484
H       -1.27838922       1.10942304      -1.41626787
H       -0.60679871       2.47320843      -1.07922614
H       -1.31916165       2.10403347      -1.08295894
H       -0.01195818       2.62913966      -0.18410021
