21
Properties=species:S:1:pos:R:3 pbc="F F F"
H        0.00000000       0.00000000       0.00000000
H       -0.19310522      -0.77460212      -0.55746114
H       -0.54706800      -0.01689900       0.80528992
H        0.44639319      -1.48368204      -0.74800885
H        0.87637907      -0.14329264       0.24446835
H        0.87637907      -0.22768584       1.21448839
H       -1.18733788      -0.74871022       0.75461692
H        1.23887682      -1.05219245      -0.25901982
H        1.16486287      -0.99209177      -0.13550283
H       -0.37193400      -1.28892350      -0.16001767
H        1.72848225       0.24197519       1.17707658
H        2.03328323       0.67346478       0.29716915
H       -0.98799908      -1.27466178      -0.10384852
H        0.03652555       0.05546078       1.61764455
H       -0.18214221      -0.75820005       2.10570335
H       -0.93199849      -1.36342478       1.53580308
H        1.35266292       0.93422902       1.65444684
H       -0.19157720      -0.87610495       2.15096402
H       -1.62990212      -1.48781168       0.79365605
H       -1.62990212      -1.48781168       0.79365605
H        0.36237484       0.80984211       1.89357293
