21
Properties=species:S:1:pos:R:3 pbc="F F F"
H        0.00000000       0.00000000       0.00000000
H        0.42330277      -0.73181123      -0.48304045
H        0.25714624      -1.54547203       0.02529907
H        0.08863404      -0.82076621      -1.44917083
H       -0.31841785      -1.70061386      -1.53993273
H       -0.67660779       0.31530851      -0.62517476
H       -0.39531651      -0.37845421       0.80533117
H       -0.65997350      -0.12394947      -1.53494465
H       -0.23811188      -1.33891702       0.77602851
H       -1.55778146       0.16382772      -0.23962644
H       -1.13433731      -1.83396506       0.70509839
H       -1.56547070      -0.58749759      -1.67103946
H       -1.83549714      -1.08655655       0.64960641
H       -2.12597227      -0.36965910      -0.90524238
H       -2.33705902      -1.23450351      -0.51084739
H       -1.95245802      -1.94358349      -1.05614424
H       -1.32585263      -1.57622695      -1.69134867
H       -0.20140800      -2.19959354      -0.71205062
H       -2.22625399      -1.13449395      -0.18306935
H       -1.07723427      -2.38436460      -0.32884195
H       -1.10554922      -1.94009066       0.47748104
