21
Properties=species:S:1:pos:R:3 pbc="F F F"
H        0.00000000       0.00000000       0.00000000
H       -0.02074104      -0.97334045      -0.01546210
H        0.68495822      -1.40482998      -0.62302208
H        0.68423760       0.28314662      -0.63222444
H        1.09754050      -0.51146352      -1.01410961
H        0.22128573       0.34709048       0.88239545
H        1.13409889       0.81063855       0.81015247
H        0.30384794      -0.42751163       1.46654963
H        1.33232474      -1.93252718      -0.12250906
H        1.28198719      -0.44532409       1.77679181
H        1.43465567       0.72168356      -0.16712767
H        2.22855020      -1.43747914      -0.19343922
H        0.25139675      -1.27179229       0.92803746
H        1.72105956       0.34928605       1.42483866
H        2.41047716       0.00219557       0.83129621
H        1.01389515      -1.87911129       0.85169482
H        2.19582582       0.22003406      -0.09311283
H        1.69176793      -1.35315967       1.41488886
H        2.00314665      -0.59362674      -0.59200341
H        2.40479350      -1.10251606       0.80102146
H        2.46715975      -0.07810891       0.79608560
