21
Properties=species:S:1:pos:R:3 pbc="F F F"
H        0.00000000       0.00000000       0.00000000
H        0.93511528      -0.39891118      -0.14054634
H        1.01920652      -1.04177880       0.65505022
H        0.98242950      -0.89395928      -1.03832841
H        1.08930969      -1.88725650       0.29645464
H        0.24901950      -1.02487981       1.25052249
H       -0.57654196      -0.22961354      -0.81743550
H        0.00460875      -0.75731075      -1.39350879
H       -0.40380961      -0.41497976       0.86335713
H       -1.20212126      -0.88464081       0.56306058
H       -1.34857345      -0.81543440      -0.47964114
H       -0.13687155      -1.91867065       1.23357987
H        1.11598659      -1.84102118      -0.85585320
H       -0.39801100      -1.69941449      -1.45402193
H        0.20284948      -2.38490868      -1.11178613
H        0.43092224      -2.47444940       0.67074680
H       -1.25648367      -1.75753808      -0.87623155
H        0.96370852      -1.83384061      -0.72074497
H        2.26438332      -2.03077984       0.32739708
H       -0.17463878      -2.02083206       1.43993759
H        2.51651430      -2.93743682       0.07746890
