21
Properties=species:S:1:pos:R:3 pbc="F F F"
H        0.00000000       0.00000000       0.00000000
H        0.07742673      -0.40936196      -0.88005048
H        0.42523873       0.99041677      -0.04872289
H       -0.95310330       0.11800810       0.16040275
H        0.77471626       1.07481003      -0.95360082
H        0.29369247       1.82847071      -1.33918166
H        0.56884992       0.26088399      -1.48221111
H       -0.81037736      -0.56084275      -1.25007522
H       -1.21591663       1.10739088       0.23371530
H       -0.93909514      -0.03314555      -2.05817699
H       -1.44945192      -0.24784398      -0.66003263
H       -0.13466173       0.49455166      -2.20812201
H       -0.39984685       1.60637057       0.05175319
H       -1.90118134       1.33700442      -0.49499160
H       -0.32511848       1.44888902      -2.17606902
H        0.20626044       1.84780025      -1.39387321
H        0.51986897       0.54816592      -2.24294400
H        0.51986897       0.54816592      -2.24294400
H        0.51986897       0.54816592      -2.24294400
H        0.51986897       0.54816592      -2.24294400
H        0.51986897       0.54816592      -2.24294400
