21
Properties=species:S:1:pos:R:3 pbc="F F F"
H        0.00000000       0.00000000       0.00000000
H        0.88791460       0.34709048      -0.19798161
H        1.06665421       0.06394386      -1.11227977
H        0.23193103      -0.20024800      -1.64778304
H       -0.43757617      -0.36585209      -0.85323107
H        1.79078436      -0.65860403      -1.19524896
H        1.46549869      -0.20868832       0.35479999
H        0.42562830      -1.15591335      -1.96795332
H        1.33832276      -1.43905997      -1.78119755
H       -0.65034628      -1.25375974      -0.73204237
H        0.91507775      -0.76035523       0.84575641
H        2.00010872      -0.98693287      -0.36055058
H        2.05637598      -0.76490963      -0.27353573
H        0.04748778      -0.77136850       0.67532176
H       -0.11103594      -1.78145695      -1.34746170
H       -0.35849339      -1.67299259       0.24360353
H        1.14609504      -1.59208632       0.39529508
H       -0.32682586      -1.50440335       0.15145814
H        1.42088497      -2.21366215      -1.19704342
H        0.49306148      -2.46430564      -1.04089522
H        0.30537742      -2.37078881       0.01747930
