20
Properties=species:S:1:pos:R:3 pbc="F F F"
H        0.00000000       0.00000000       0.00000000
H        0.13252793       0.60990006       0.74734145
H       -0.52155960       0.55622131      -0.68696243
H       -0.77426410       1.45090139      -0.25220737
H       -0.38828298       1.50431728       0.69726050
H        0.93011481      -0.19475858      -0.38765898
H       -0.35416752       2.17344928      -0.84783077
H        0.30187529       2.64311028      -0.30277365
H        0.31504223       2.25172567       0.69108838
H        1.15632033       2.45833921      -0.73154438
H        1.58615756       0.27490246       0.15739813
H        1.08095932       0.76995051       0.90105534
H        0.97660917       0.21460338      -1.26988459
H        1.24754691       1.85281444       0.84802431
H        0.11980632       1.70990121      -1.63128197
H        1.72544122       1.93238759      -0.05863994
H        0.99863726       1.84362459      -1.53813338
H        1.90261412       1.05253994      -0.43618298
H        1.44804478       0.99482548      -1.37802756
H        0.06561601       0.68060821      -1.51947463
