20
Properties=species:S:1:pos:R:3 pbc="F F F"
H        0.00000000       0.00000000       0.00000000
H        0.88292891      -0.28314662      -0.29719594
H        1.10464609      -0.92601418       0.47149560
H       -0.32715181      -0.43977645       0.80475414
H        0.39359054      -0.99555528       1.15073299
H        1.88419008      -0.54755998       0.91550523
H        2.14623618       0.28417104       0.48235831
H        2.03409028       1.01598227       1.11476374
H        1.50174880       0.45202816      -0.36651590
H        1.36807609       1.62588239       0.75074732
H        0.62016332       1.67655897       1.37213230
H        1.69623756       0.63752806       1.94584072
H        0.72330785      -0.62970316       2.05115652
H        1.59084404      -0.32293481       1.82557368
H       -0.15146828       1.29810476       0.91451019
H        0.81732368       1.01598227       2.12568426
H       -0.43300810       0.35754365       1.36195564
H        0.99908543       1.32871747      -0.18743727
H        0.25176337       0.23315674       2.11623669
H        0.09950986       1.01761651       0.08875930
