21
Properties=species:S:1:pos:R:3 pbc="F F F"
H        0.00000000       0.00000000       0.00000000
H        0.36329272       0.89468008       0.34769225
H        0.26671770      -0.05341591      -0.98961222
H        0.92190301      -0.82478440      -1.16004336
H        0.64920568       0.79538321      -1.27475071
H        0.52771175      -0.79439902       0.37917590
H        1.18700242      -0.38503706       0.96724010
H        1.04346824      -1.26406002      -0.30014324
H        1.76158547      -0.44633019      -1.47590220
H        1.54862332       0.57754469      -1.57749677
H        2.51816678      -0.60599911      -0.80105823
H        1.10978556       0.66506654       1.01353765
H        2.08096933      -1.15892255       0.01580238
H        2.16954541      -0.57310170       0.85383105
H        2.63682914       0.25862932       0.65907371
H        2.81516862       0.28868097      -0.39527330
H        1.94707501       1.07442856       0.73170406
H        0.70970768       1.35160446      -0.41435474
H        2.17622161       1.01732111      -0.97684878
H        1.77139342       1.53797662      -0.16695213
H        2.34343815       1.02049220      -0.83114457
