20
Properties=species:S:1:pos:R:3 pbc="F F F"
H        0.00000000       0.00000000       0.00000000
H        0.12529835      -0.08895500      -1.01474690
H        0.49320230       0.82263768      -1.30965257
H        0.30129555       0.87984765       0.28835735
H        0.65649712       1.37882733      -0.46855214
H       -0.13324592       1.29229867      -1.88848066
H       -0.94688702      -0.11800810       0.19375233
H        0.07757491       2.21638918      -0.59763670
H       -0.97046506       0.70647782      -1.98440742
H       -1.44631326      -0.17142400      -0.70125836
H       -0.36954740       2.13655782      -1.39891481
H       -0.61217791       2.19857669       0.16213143
H       -0.71753114      -0.18923646      -1.42367315
H       -0.49503598       1.37489569       0.70561904
H       -2.06125593       0.64504838      -0.79368329
H       -1.54155540       2.10962176      -0.26409450
H       -1.28563774       0.81911689       0.58679283
H       -1.38033354       2.05620575      -1.27625954
H       -1.73735523       1.14009643      -1.63233674
H       -1.95816922       1.28266501      -0.03461558
