21
Properties=species:S:1:pos:R:3 pbc="F F F"
H        0.00000000       0.00000000       0.00000000
H       -0.51304650      -0.77136850      -0.44169885
H       -0.31798306      -1.62016761      -0.00632399
H        0.37363300      -1.48940194       0.81141365
H        0.53137892      -0.39891118       0.78219581
H        0.09744471      -2.23006773      -0.64154255
H        0.60521507       0.40936196      -0.64358246
H        0.40491763      -1.36434233       0.78552580
H       -0.50836474      -1.25764370      -0.45205331
H        0.71797049      -1.55931652      -0.75720751
H        0.21740830      -0.74565572      -0.94550127
H        0.58887255      -0.02212763      -1.57464290
H        0.06328070      -0.72417903      -0.95228159
H       -0.42222452       0.06682737      -1.72660923
H       -0.41626859       0.06682737      -1.76199925
H        0.70711458      -1.07157457      -1.35371912
H        0.62087715       1.05189085      -1.47672808
H        0.83153605       0.85713226      -0.49132675
H       -0.75457770      -1.58382940      -0.49815124
H       -0.03104848       0.77460212      -0.58914220
H       -0.75457770      -1.58382940      -0.49815124
