21
Properties=species:S:1:pos:R:3 pbc="F F F"
H        0.00000000       0.00000000       0.00000000
H       -0.81573808      -0.52769721      -0.06456009
H       -0.09677097       0.68549418       0.68468529
H       -1.55243397      -0.09620762       0.50501847
H       -1.13366389       0.67516088       1.03694534
H       -1.16902745       0.48040229       2.04399157
H       -1.63096714      -0.43119037       2.13851380
H       -1.87360823      -0.81875551       1.15930855
H       -0.25857329       0.36239418       2.36834979
H       -0.62422198      -1.49577260       0.21735373
H       -0.98424661      -1.10143638       2.56961322
H       -0.16510904      -0.60245669       2.73722529
H       -1.21557665      -1.68054354       0.96849966
H       -1.75196421      -0.88593340       1.13862884
H       -1.13950658      -0.44169515       2.49164224
H       -1.37834990       0.49449939       0.05427480
H        0.67751884      -0.58319080       0.38589853
H        0.49837884       0.49073559       1.49782109
H        1.01516855      -0.28473899       1.30798471
H        0.27212247      -1.46303844       0.48379010
H        0.27212247      -1.68087697       1.43279338
