21
Properties=species:S:1:pos:R:3 pbc="F F F"
H        0.00000000       0.00000000       0.00000000
H       -0.21671417       0.94706190      -0.06457304
H       -0.85205346      -0.49504808      -0.28680325
H       -0.07971342       1.40067911       0.90475118
H        0.27565658       0.69159919       1.46953321
H       -1.22185528       1.03601694      -0.25192940
H       -1.61612821       0.17519787      -0.42922533
H       -1.10628414      -1.02274525       0.49099064
H       -2.28723288       0.02371708       0.25978345
H       -1.95139241      -0.78720880       0.88726872
H       -0.42482692      -0.86307633       1.24162090
H       -2.32883883       0.86127901       0.85146129
H       -0.97049069       1.79959035       1.22209907
H       -0.42682648       0.64092255       2.14185047
H       -1.85577154      -0.44011831       1.79194856
H        0.29259032      -0.19283038       0.94261134
H       -0.80879909      -0.25286824       2.08444047
H       -2.05399442       0.59708714       1.80434489
H       -0.39854145      -0.74791634       1.28447795
H       -1.60316563      -1.02622890       2.50067258
H       -1.60316563      -1.02622890       2.50067258
