21
Properties=species:S:1:pos:R:3 pbc="F F F"
H        0.00000000       0.00000000       0.00000000
H        0.36329272       0.89468008       0.34769225
H        0.26671770      -0.05341591      -0.98961222
H        0.92190301      -0.82478440      -1.16004336
H        0.64920568       0.79538321      -1.27475071
H        0.52771175      -0.79439902       0.37917590
H        1.18700242      -0.38503706       0.96724010
H        1.04346824      -1.26406002      -0.30014324
H        1.76158547      -0.44633019      -1.47590220
H        1.54862332       0.57754469      -1.57749677
H        2.51816678      -0.60599911      -0.80105823
H        1.10978556       0.66506654       1.01353765
H        2.09398794      -1.09331894       0.06307077
H        2.26123857      -0.45045137       0.84542131
H        2.71370983       0.38127965       0.61836582
H        2.82922649       0.28868097      -0.40594634
H        1.93666840       1.07442856       0.70249355
H        0.70970768       1.35160446      -0.41435474
H        1.99035525      -1.14605188      -0.10639097
H        2.33677697       1.08308005      -0.82991266
H        2.18751955       1.04109275      -0.92155558
