21
Properties=species:S:1:pos:R:3 pbc="F F F"
H        0.00000000       0.00000000       0.00000000
H       -0.77018702      -0.01689900       0.59547228
H       -1.30504966      -0.83337140       0.27826783
H       -0.36469549      -0.28109086       1.50051546
H       -0.72797334      -1.14593530       1.76154089
H        0.01901358      -1.84275198       1.86043942
H        0.89256084      -0.19475858       0.46768385
H       -1.43230176      -1.41012716       1.06336617
H       -0.15908848      -0.74740851      -0.68512434
H        1.31976330      -1.05240095       0.09989107
H        0.86567801      -1.43339002       1.60816360
H       -0.17713854      -2.55183196       1.22263777
H       -0.93599868      -1.27314782      -0.50815380
H        1.21881127      -1.92843807       0.78139383
H        0.55629367      -2.65098596       0.47755370
H       -0.71866256      -2.19157839      -0.26875645
H       -1.00987720      -2.33399343       0.76749659
H        0.21186996      -2.46621490      -0.41423824
H        0.61452818      -1.41765451      -0.61021471
H        0.25185645      -2.32924724      -0.30889779
H        0.79107404      -1.65488541      -1.37052083
