20
Properties=species:S:1:pos:R:3 pbc="F F F"
H        0.00000000       0.00000000       0.00000000
H       -0.30729049       0.46966103      -0.79564559
H       -1.13274407       0.00000000      -1.01036799
H       -1.31736827      -0.60990006      -0.27416366
H       -1.88552427       0.69681674      -1.04341900
H        0.07392955       0.74740851       0.69945610
H       -0.34336090       1.56106925       0.36496282
H       -0.62232649       1.34323072      -0.54211241
H       -0.65386945      -0.74740851       0.25915086
H       -1.62976134       1.46761763      -0.69352829
H       -2.16865540      -0.38028651       0.25110924
H       -1.19464803       1.79068279       0.89023572
H       -2.01445842       1.71826124       0.16510248
H       -2.62578583       1.00918126       0.43258238
H       -1.34168816       1.04327428       1.57804656
H       -1.02734947      -0.48321664       1.17786694
H       -2.58613014       0.31236452      -0.31987876
H       -2.26967120       0.61027008       1.30858243
H       -1.94868386      -0.20550317       1.12826443
H       -0.54529530       0.38155642       1.43160141
