20
Properties=species:S:1:pos:R:3 pbc="F F F"
H        0.00000000       0.00000000       0.00000000
H        0.75986940       0.40936196      -0.45064643
H        0.36967397       1.18073046      -1.00387526
H        0.58590585       0.99595952      -1.93509173
H        1.18487024      -0.22651243      -1.05322325
H       -0.29830962       0.80120093      -2.41836810
H       -0.85147023       0.34709048      -0.32029295
H       -1.32518148      -0.33840370      -0.82403511
H       -0.65171003       1.16291797      -0.90497422
H       -0.01701656      -0.91843063      -0.32288778
H       -0.81895554      -1.17013478      -0.82847756
H        1.06736112       0.13933966      -2.00488901
H       -0.25496906      -0.07767528      -2.69046378
H        0.75502843      -1.04281747      -0.98756695
H       -1.44417596      -0.00605151      -1.78772926
H        0.49632806      -0.55747712      -2.49651051
H       -0.94394034      -0.61595154      -2.35855961
H        0.30479422      -1.31113780      -1.91053152
H       -1.04462254       0.93330443      -1.82487702
H       -0.60272366      -1.35490572      -1.75969410
