21
Properties=species:S:1:pos:R:3 pbc="F F F"
H        0.00000000       0.00000000       0.00000000
H       -0.33764970       0.29845181       0.92208624
H       -1.21698689      -0.11091015       1.00723279
H       -0.63670933       1.26652730       0.75863236
H       -1.25337875      -0.79640436       0.31670099
H       -0.51826322      -0.71201116      -0.31618440
H       -0.83609444      -0.37965897      -1.23370790
H       -2.05214024      -0.57856584      -0.19573170
H       -1.80077815      -0.26165086      -1.17437506
H       -2.04593587       0.66744685      -1.33165205
H       -0.45701119       0.50018871      -1.40756094
H       -2.44680190       1.01453733      -0.51501536
H       -2.46599579       0.25899613       0.22916505
H        0.09868750       0.75083232      -0.64832604
H       -1.99347389       0.55933583       0.97314090
H       -0.34266448       1.49614084      -0.19747382
H       -1.22398281       1.16642654      -1.48486269
H       -1.88870883       1.74634862      -0.19713888
H       -1.65353799       1.39091420       0.82117236
H       -1.09241450       1.86324334      -0.74293268
H       -1.98917580       1.67406082      -0.04787087
