21
Properties=species:S:1:pos:R:3 pbc="F F F"
H        0.00000000       0.00000000       0.00000000
H       -0.47398776      -0.23709527       0.75329894
H       -1.01697135       0.62054718       0.90476584
H        0.09892678      -0.32148847       1.53605533
H       -0.78849804       1.29079318       0.16187006
H       -0.33924404       2.10726547       0.59183228
H       -0.30336165       2.01831055       1.61365581
H       -0.15992303       0.94210368      -0.37441835
H       -0.81729519       1.09666276       1.83852208
H       -0.01928111       0.44988003       2.20264482
H        1.07147074      -0.30367601       1.20869470
H        0.64183676       1.96763396       1.84189427
H        1.22840023       2.05202723       1.06931293
H        0.67229468       1.44108343      -0.29383439
H        1.49998283       0.53388596       1.61880577
H        1.79479492       1.06158316       0.85546935
H        1.37521362       0.85789263       0.04358870
H        1.78256929       1.19438481       0.96601677
H        2.00771856       0.21550086       0.53685677
H        1.94016504       0.34146440       0.47907257
H        2.17444658       0.13335896       0.66253430
