21
Properties=species:S:1:pos:R:3 pbc="F F F"
H        0.00000000       0.00000000       0.00000000
H        0.88791460       0.34709048      -0.19798161
H        1.06665421       0.06394386      -1.11227977
H        1.35042572       0.88041627      -1.66560650
H       -0.38899955      -0.46354809      -0.82893085
H        0.59946299       0.96937126      -2.35948396
H        0.91026664       1.31896400      -0.14299822
H        0.24946654      -0.43110421      -1.48705387
H        0.03215986       1.63427258       0.13551593
H        1.26415110       1.63407695      -1.05518603
H       -0.03725278       0.23756003      -2.27518511
H       -1.13372469      -0.01927418      -1.13932228
H        0.09679961       1.84606063      -2.18040538
H       -0.55873990       0.83756196       0.19905643
H       -0.92795902       0.32781631      -2.02546549
H       -1.35012174       0.89371717      -0.53216767
H        0.47119161       2.30960870      -1.34477532
H       -1.24136841       0.73438650      -0.53230560
H       -0.36851254       2.13344550      -0.52677238
H       -1.13083768       1.66378450      -0.90931612
H        0.37610880       2.29311442      -1.21479034
