20
Properties=species:S:1:pos:R:3 pbc="F F F"
H        0.00000000       0.00000000       0.00000000
H       -0.72715116       0.63587439       0.12237607
H       -1.53474522       0.19609794       0.44245327
H       -0.42215064      -0.87668937       0.32638699
H       -1.41174567      -0.76436496       0.54464447
H        0.70214248       0.25064358       0.62628645
H        0.43338600       1.06430435       1.08865750
H       -1.48242891      -0.95912355       1.54982948
H       -0.48570171       1.36275613       0.74292922
H       -1.08790982       1.34585714       1.50786114
H       -0.61509281       1.09521353       2.32130003
H        0.77228075      -0.45843634       1.28987312
H        0.57760680      -0.02694675       2.20050073
H        0.34795552       0.96243608       2.05317163
H       -1.82947683       0.58625549       1.31495988
H       -0.26188463      -0.45843634       2.60348296
H        0.12965158      -1.17514122       1.13864589
H       -0.99036372       0.20053345       2.65602875
H       -0.56068712      -1.20584488       1.96675587
H       -1.72747505      -0.13629240       2.03665519
