20
Properties=species:S:1:pos:R:3 pbc="F F F"
H        0.00000000       0.00000000       0.00000000
H        0.59380746      -0.49897972      -0.58861941
H        0.36755341      -0.26936617      -1.56299639
H       -0.66031027       0.49504808      -0.61011606
H        0.04566765      -1.08583856      -2.09505486
H       -0.40941226       0.40087977      -1.54253709
H        0.08891147      -1.83949924      -1.48008633
H        0.39059126      -1.50714707      -0.55712628
H       -0.91517937      -0.92616963      -2.41847825
H       -0.87370133      -2.17185140      -1.35263979
H       -0.36966956      -1.63153398       0.12099999
H       -1.14155555      -2.05384326      -0.42399073
H       -1.45099807      -1.58603048      -1.96653414
H       -1.62292314       0.16269588      -0.48266953
H       -1.19550574      -0.04632199      -2.10969663
H       -1.59916461      -0.60867262       0.19390279
H       -1.93244219      -0.23621529      -1.37619734
H       -0.61193097      -0.66208851       0.46929434
H       -1.94103122      -1.44623458      -0.29080430
H       -2.16534662      -1.18204272      -1.25683188
