21
Properties=species:S:1:pos:R:3 pbc="F F F"
H        0.00000000       0.00000000       0.00000000
H       -0.93989587      -0.24138860      -0.47165081
H       -0.11793167       0.58582085       0.83440393
H        0.42215070      -0.87668937       0.32638690
H        0.49404460      -0.82327348       1.34878707
H        0.12631029       0.05986929       1.68118882
H       -0.24445125      -1.62409782       0.10200708
H       -1.72164416       0.24593122       0.09005746
H       -1.05542421      -1.20185149      -0.36108345
H       -1.22640514       0.77188277       0.81905484
H       -1.07794631       0.73730165       0.89344960
H       -0.80878758      -0.49583906      -0.04714341
H       -0.81416494      -0.49583906      -0.07909510
H        0.19045673       0.95433736       0.03205292
H       -1.01273632      -1.98626614       0.85454243
H       -1.05542421      -1.98626614       0.85529178
H       -1.05542421      -1.98626614       0.85529178
H       -1.05542421      -1.98626614       0.85529178
H       -1.05542421      -1.98626614       0.85529178
H       -1.05542421      -1.98626614       0.85529178
H       -1.05542421      -1.98626614       0.85529178
