20
Properties=species:S:1:pos:R:3 pbc="F F F"
H        0.00000000       0.00000000       0.00000000
H        0.58115071      -0.52769721      -0.57607329
H        0.32667866      -1.46634245      -0.62350637
H        1.48899782      -0.47428131      -0.10037977
H        1.70633388      -1.39271188       0.13901760
H       -0.65952331      -0.60990006       0.37564859
H        1.39934659      -0.00462028       0.74781948
H        0.50360096       0.39891118       0.80036235
H        1.81419396      -1.41052437       1.15949440
H        0.13679042       0.02045697       1.61907077
H       -0.47130489      -1.50369084       0.03834638
H        0.87082243      -0.53576434       2.07199311
H       -0.21596548      -2.11840534       0.81953251
H        1.11369991      -2.10734105       1.43712425
H        1.71454859      -0.55357677       1.48792744
H       -0.27646741      -1.56218410       1.67992854
H        0.74937022      -2.41685724       0.63959563
H        1.09247625      -1.99229407      -0.18732637
H       -0.55166322      -0.62771249       1.39612544
H        0.61221051      -1.47779083       2.06876040
