21
Properties=species:S:1:pos:R:3 pbc="F F F"
H        0.00000000       0.00000000       0.00000000
H        0.50912565      -0.18477097       0.80914259
H       -0.05298162       0.04484257       1.63657045
H       -0.90820342       0.29548615       1.24435341
H       -0.85696793       0.27858716       0.27216500
H       -0.06914817      -0.92740691      -0.43411842
H        0.67534435      -1.19715059       0.83711636
H        0.19347069      -1.56300271       1.66613626
H        0.40153319      -1.64995480       0.12239531
H       -0.52157736      -2.20587015       1.30731678
H       -0.33140790      -2.29282236       0.44308606
H       -1.14888024      -2.00967574      -0.00371119
H       -0.19010289      -0.81279981       2.18335295
H       -0.94614363      -1.21506560      -0.52864301
H       -1.55248177      -0.41822958      -0.01771572
H       -1.07412577      -1.08898079      -0.42954838
H       -1.70757043      -1.93440616       0.65686047
H       -1.25348544      -2.09920192       1.37852812
H       -1.27125192      -1.26747084       1.88446164
H       -1.57295752      -0.34038824       1.56345630
H       -1.19680023      -1.00755835       2.13915372
