21
Properties=species:S:1:pos:R:3 pbc="F F F"
H        0.00000000       0.00000000       0.00000000
H        0.54069358       0.79439902       0.36042264
H       -0.06962043       1.56576753       0.65339255
H        0.13145566       1.71724832       1.59396839
H        1.11419463       0.46204683       1.14398026
H       -1.03495622       1.26731575       0.47345582
H        0.87765384      -0.46705088       1.31394148
H        0.83282447       0.98974407       1.91237307
H        0.15126249      -0.81647241       0.60317194
H       -0.73774135       1.48763478       2.08904219
H       -0.54620761       0.73397410       2.67502117
H       -1.05792642       0.02105188       2.39533639
H       -1.59538865       0.31950369       1.57351851
H       -1.38852787       1.24860144       1.36846495
H        0.39517799      -0.55600590       2.21540022
H       -0.99927378       0.32521206       0.06788063
H        0.39467496       0.40655327       2.55733395
H       -0.46152323      -0.68802804       2.09605408
H       -0.73477340      -1.04608595       1.06743693
H       -1.42533886      -0.31765550       0.74501711
H       -0.62099814      -0.84769696       1.09485614
