21
Properties=species:S:1:pos:R:3 pbc="F F F"
H        0.00000000       0.00000000       0.00000000
H       -0.67230010      -0.60990006       0.35227177
H       -1.41321456       0.00481451       0.70793402
H       -0.29223189      -1.16612136       1.12653911
H       -1.14914644       0.98413366       0.55132639
H       -0.85433912      -0.93650782       1.95396698
H        0.64856172      -0.94828284       1.25109696
H       -1.05484939       1.36258793       1.44348192
H       -0.17544442      -0.58941734       2.55951715
H        0.90084261      -0.21647161       0.66044676
H        0.71237445      -0.60119236       2.15857530
H       -1.48389781      -0.18994407       1.71311903
H       -0.08417302       1.69494009       1.46904206
H        0.85755634      -0.19475858       0.52914101
H       -0.27767882       1.09085810      -0.11573277
H       -0.28156936       1.09085810      -0.10591643
H       -0.28156936       1.09085810      -0.10591643
H        0.14182317       1.23881793       0.81548494
H        0.15029836       1.23881793       0.77001655
H        0.15029836       1.23881793       0.77001655
H        0.14182317       1.23881793       0.81548494
