21
Properties=species:S:1:pos:R:3 pbc="F F F"
H        0.00000000       0.00000000       0.00000000
H       -0.06381270       0.34709048       0.90747839
H        0.77678555       0.12925199       1.34793484
H        1.29935396       0.90385413       1.62175012
H        1.34932721      -0.31052446       0.69459450
H        2.19979763       0.88604170       1.12960410
H        2.16384554       1.72117925       0.44741637
H        2.21361160       1.32226801      -0.49689144
H        2.26125288       0.35683686      -0.37969983
H        0.87557662      -0.52595156      -0.10032157
H        2.26533628       0.07238090       0.59882945
H       -0.07796320       1.37149763       0.84653836
H        0.70158076       1.74995184       1.29054797
H        1.41921186      -0.03090349      -0.81636065
H        1.36060953       1.58645988      -1.00277090
H       -0.02628430       1.66994941      -0.13406336
H        0.92495251       0.72275722      -1.18482256
H        0.03328443       0.70494479      -0.67694992
H        1.29917943       2.16095567       0.53114235
H        0.81058180       2.11415720      -0.39691108
H        0.00179863       0.79326004      -0.66693389
