20
Properties=species:S:1:pos:R:3 pbc="F F F"
H        0.00000000       0.00000000       0.00000000
H        0.17388797      -0.66108263       0.69339287
H       -0.04571859      -0.43977645      -0.86750644
H        0.13536155      -1.58848953       0.25549334
H        0.08724561      -1.47686028      -0.65750259
H       -0.66647822      -2.14471078       0.57328993
H       -0.91999018      -0.28829566      -1.26846004
H       -1.47698045       0.26792565      -0.60989833
H       -2.31275916      -0.22712243      -0.27865058
H       -0.73607433      -1.91663671      -0.93463409
H       -1.34955132      -1.19408882      -1.32820046
H       -2.15843678      -1.10513377      -0.70280838
H       -1.27092421      -2.32948184      -0.16736227
H       -0.91829020       0.43148959       0.15454386
H       -0.67892987      -0.60766673       1.26187539
H       -1.17327857      -1.50234675       1.16972971
H       -2.03294039      -1.35086596       0.73834127
H       -2.04761410      -1.84984565      -0.09764010
H       -1.28570390       0.07782745       0.93023729
H       -2.20567799      -0.35150933       0.73445624
