20
Properties=species:S:1:pos:R:3 pbc="F F F"
H        0.00000000       0.00000000       0.00000000
H       -0.61304885      -0.15966894      -0.80746567
H       -0.33189824       0.74740851       0.62011933
H       -0.04707646       0.13878287      -1.60991549
H       -1.14498580       1.09449899       0.21210244
H       -0.53381288       0.87059408      -2.02896309
H       -1.37432909       0.56854743      -0.63883853
H       -0.92949933       2.06257439      -0.05194184
H        0.39671704       1.46995640       0.63930547
H        0.84976429       0.38942647      -1.32545924
H       -1.04865944       2.11325097      -1.01697743
H        0.10843438       1.60240531      -2.03459930
H       -1.30421352       1.21141505      -1.43578839
H        0.92148483       0.30047148      -0.30552435
H       -0.24693555       2.31148529      -1.46981716
H        0.94186825       1.25531483      -1.66993904
H        0.03401577       2.29218793       0.21683335
H        1.12611043       1.78126645      -0.80810744
H        1.11559391       1.19426227       0.02842271
H        0.41333461       2.40044022      -0.68914157
