21
Properties=species:S:1:pos:R:3 pbc="F F F"
H        0.00000000       0.00000000       0.00000000
H        0.80713278      -0.08439321       0.53802919
H        1.46078146      -0.64061451      -0.02471870
H       -0.71559155      -0.36585209       0.63828284
H       -1.02358866      -1.16046226       0.16733339
H        0.67898917      -0.54794133       1.44468594
H        1.15560555      -1.39674044       1.42375994
H       -0.83866006      -1.86954212       0.80847931
H        0.92331928      -0.93906629      -0.84653664
H        0.72462386      -1.94498932      -0.89084053
H       -0.24747938      -2.50541639       0.36776394
H       -0.25265118      -0.68116057       1.43472981
H        1.16267741      -2.36435747       0.00155330
H        0.66036773      -2.55883241       0.84345746
H        1.60108066      -1.47234559       0.46169734
H       -0.27432609      -2.13974786      -0.75858307
H       -0.75138319      -1.29094875      -0.76276946
H       -0.27592874      -1.52245164       1.52326775
H       -0.19960251      -2.15832591      -0.54069459
H        0.01436093      -0.52769721      -0.81816274
H        0.66036773      -1.94296932       1.72936940
