21
Properties=species:S:1:pos:R:3 pbc="F F F"
H        0.00000000       0.00000000       0.00000000
H        0.13252793       0.60990006       0.74734145
H       -0.52155960       0.55622131      -0.68696243
H        0.04441279       0.85467315      -1.48941219
H        1.01676679       0.62505960      -1.25461650
H        0.96045631      -0.01781246      -0.36128971
H        0.00658242       1.87908030      -1.53923976
H       -0.58088738       2.22617078      -0.84464031
H       -0.87026012       1.41386366      -0.24403876
H        0.02315891       2.72515059      -0.26653290
H        1.54415584       1.43872046      -1.16585958
H        1.86258531       1.49213636      -0.19165564
H        1.01676679       0.15539858      -0.40169251
H        0.95217794       2.24493241      -1.38010073
H       -0.65861440       1.25276756       0.62843394
H        0.98361522       2.70733809      -0.62782264
H       -0.63965493       1.28014600       0.65886635
H        1.00160635       0.55922341       0.31122744
H        1.01424503       0.52550685       0.34297329
H       -0.10971725       1.19309092       1.48846674
H       -0.03047551       1.19309092       1.50982380
