21
Properties=species:S:1:pos:R:3 pbc="F F F"
H        0.00000000       0.00000000       0.00000000
H        0.87747955       0.49504808      -0.19565487
H        1.32394314      -0.06117323      -0.93363321
H       -0.00888455      -0.83173102      -0.50616747
H        1.45411873       0.51286054       0.65316433
H        2.32419133       0.01781246       0.42683530
H        2.38653636      -0.81974947       1.01668859
H        0.01193129      -1.66929293       0.08660603
H        1.50130796      -0.94413638       1.52089334
H        2.47272992      -1.56715798       0.31863761
H        0.84441197      -2.13895392      -0.09901528
H        0.74692941      -0.81483388      -1.15068531
H        1.61422467      -2.12337923       0.40176705
H        0.97081989      -0.01483667       1.31348157
H        2.19000769      -0.34431985      -0.59038228
H        0.14391416      -0.36192715       0.93425071
H        0.10985260      -1.38614631       1.01305103
H        1.25183225      -1.63997424      -0.82914466
H        2.35983777      -1.25184941      -0.59563637
H        1.03486633      -1.68459809       1.34259617
H        1.51034164      -2.12437463       0.61556059
