21
Properties=species:S:1:pos:R:3 pbc="F F F"
H        0.00000000       0.00000000       0.00000000
H        0.63848275      -0.52769721      -0.51179713
H       -0.55369717       0.46354809      -0.72929174
H        0.47764969      -0.43874222      -1.52152157
H       -0.28885925       0.14444858      -1.66439736
H       -1.47724342       0.18040147      -0.60701746
H       -1.07774520      -0.35059950      -2.09557033
H       -0.75005496      -1.25725639      -2.23214722
H       -0.60880476      -0.58582085       0.58266157
H       -1.73630881      -0.34555009      -1.44938564
H       -1.56232452      -0.46143395       0.22398117
H       -1.87452316      -1.38884091      -0.08548978
H       -0.34473664      -1.56514001       0.42605391
H        0.50103796      -1.45679498      -0.25499508
H       -1.11306560      -2.05908680       0.07031988
H       -1.33803666      -1.84307718      -1.62847900
H       -0.74420971      -2.25243902      -0.97437406
H       -1.92727792      -1.26398075      -1.18847013
H        0.21310139      -1.34621143      -1.88901329
H        0.23897918      -1.98208582      -1.15209067
H       -1.04588962      -1.92008686      -0.05141407
