21
Properties=species:S:1:pos:R:3 pbc="F F F"
H        0.00000000       0.00000000       0.00000000
H       -0.12270200      -0.91159266      -0.45526573
H       -0.80215883       0.61471456      -0.17886049
H       -0.96005720      -0.92849165      -0.95186573
H       -1.34146917       0.08701736      -0.79427981
H       -2.18639159       0.03634072      -0.31303239
H       -1.57197952      -1.62530839      -0.51218230
H       -0.25145403      -1.54746699       0.27078351
H        0.00000000      -0.15966894       1.01381934
H       -0.19037588      -1.14905179       1.20927417
H       -1.04958999      -1.23344505       1.65948510
H       -1.71909952      -1.64280701       1.08308196
H       -2.49995232      -0.99993944       0.90897214
H       -0.82548523       0.30387914       1.41007829
H       -2.32747364      -1.15564740      -0.11631861
H       -1.28257453       0.79948556       0.64765108
H       -2.30315566      -0.12009180       1.27666771
H       -1.46621835      -0.33199525       1.77502441
H       -1.19412458      -1.94637823       0.19617760
H       -2.22524500       0.40057439       0.57304513
H       -2.15496016      -0.16626459      -0.32770622
