21
Properties=species:S:1:pos:R:3 pbc="F F F"
H        0.00000000       0.00000000       0.00000000
H       -0.19310522      -0.77460212      -0.55746114
H       -0.54706800      -0.01689900       0.80528992
H       -0.60786545      -1.50641334      -0.06706613
H       -0.43978676       0.70907992      -0.50185072
H       -1.21495569       0.99222654       0.01487154
H       -0.93260229      -0.91068977       0.82900220
H       -0.83059812      -1.04286528       0.82109892
H       -1.08767462      -1.01779401      -0.51040208
H       -1.45817554      -0.34003174       0.31654310
H       -1.16326237      -0.92059249      -0.70084220
H       -2.08166623       0.79746795      -0.49913788
H       -1.27677524       0.46627498       0.89400589
H       -0.71756029       0.35108271      -1.30373454
H       -0.48913187      -0.64717162      -1.37179804
H       -2.58814859       0.10065120       0.05875635
H       -0.68477142      -0.12438690       0.75428098
H       -0.80577922      -0.18642151       0.56796110
H       -0.10979545       0.10660225       1.09040284
H       -1.37347293       1.42673779       0.76664227
H       -0.12280810       0.06574798       1.08821285
