21
Properties=species:S:1:pos:R:3 pbc="F F F"
H        0.00000000       0.00000000       0.00000000
H        0.12256700       0.83228827       0.37498182
H       -0.70568484      -0.39891118       0.62944639
H        0.89708000      -0.46354809       0.18356074
H       -0.28605625      -1.19331026       1.12559748
H        1.04719234       0.91668147       0.66825062
H       -0.28605625      -0.99855167       2.13326454
H       -0.78657854      -0.10387158       2.18173027
H        0.71215153      -1.17262805       0.82470667
H       -1.00369954       0.32363671       1.29460478
H       -0.47239822       0.98376906       1.13071382
H        1.08049703       1.13451993       1.61666930
H        0.12638521       1.14343798       1.94881415
H        1.48851264       0.00508881       0.50224149
H        1.30730128      -0.97786945       1.63784242
H        0.68017584      -0.81820053       2.43442488
H        1.51438498       0.31804752       2.06213307
H        0.80884618       0.13746476       2.78581023
H        1.77193534      -0.34303510       1.39527583
H       -0.01797730       0.63644445       2.66154003
H       -0.10572940       0.53899598       2.60183716
