21
Properties=species:S:1:pos:R:3 pbc="F F F"
H        0.00000000       0.00000000       0.00000000
H       -0.32983679       0.96807545      -0.08579928
H        0.25969583      -0.40936196      -0.84441799
H        1.21388471      -0.59413290      -0.78573042
H       -0.27921748       1.11955619      -1.04629505
H       -1.24492693       1.31431472      -1.33404183
H       -0.01809746       0.27075708      -1.44556606
H       -1.29532123       1.02149141       0.25816375
H        1.61748385      -0.01094210      -1.45285642
H        2.26626468       0.57224870      -1.02038360
H        2.20026684       0.32160512      -0.08182991
H        1.98197579       1.50134635      -1.08377266
H        1.85218012       1.11621523       0.36031401
H       -0.72481531      -0.52769721       0.37978861
H       -1.57919610       0.09408450       0.59380543
H        0.93576068       0.88660169       0.76128376
H        1.66914570       1.86362374      -0.31880516
H       -1.81784141       1.22992146      -0.55128533
H        1.57103264      -0.41020611       0.04692422
H        0.66980773       2.09323740      -0.36268139
H        0.70228344      -0.08147377       0.51300532
