21
Properties=species:S:1:pos:R:3 pbc="F F F"
H        0.00000000       0.00000000       0.00000000
H        0.36925858       0.05341591      -0.95609558
H       -0.46627399      -0.91159266      -0.07008027
H       -0.75546783       0.60990006       0.07315227
H       -1.47621107      -0.78720576       0.06363182
H       -1.60272121       0.17325711       0.16144350
H       -1.91378725      -1.15305781      -0.78959924
H       -0.32515514      -1.29004693      -0.95603675
H       -2.33277822      -0.37845570      -1.20492935
H       -2.17432284       0.43744898      -0.64898741
H       -0.77025706       1.19572091      -0.76941466
H        0.24302685      -0.64717937      -1.51925468
H       -1.65812731       1.13426566      -1.19790685
H       -0.10200092       0.86988831      -1.36181867
H       -1.18899798      -1.40805507      -1.38952327
H       -0.32857472      -0.38298750      -2.32968569
H       -0.51507854       0.62293553      -2.24808288
H       -1.19324088      -0.82276392      -2.24595976
H       -1.92218089      -0.26044759      -2.07988358
H       -1.52012753       0.78260446      -2.11501789
H       -1.48274219       0.66695929      -2.06831217
