21
Properties=species:S:1:pos:R:3 pbc="F F F"
H        0.00000000       0.00000000       0.00000000
H       -0.90169489       0.25064358      -0.26867270
H        0.19018230       0.34709048       0.88961780
H       -1.36796892      -0.66094911      -0.33875299
H        0.46698520      -0.42427802       1.50743234
H       -0.81495959      -1.45534813       0.00247234
H       -0.61269855      -2.12559414      -0.74798399
H       -1.13753414      -1.75974202      -1.55049491
H        0.47789863      -1.24075043       0.88567871
H        0.33750474      -2.10869503      -0.95985436
H        0.78707117      -1.46582747      -0.29808760
H       -1.60330057      -0.83573246      -1.21191251
H       -1.25176275      -0.10392123      -1.74943876
H        0.06061291      -1.02162731       0.07699128
H        0.49807915      -1.75929916      -1.96795440
H        1.05691659      -0.90165675      -1.89396632
H        1.31243181      -1.73973012       0.93700683
H       -0.62030220       0.84213853       1.27867579
H       -0.91358173       0.37247750       2.07959175
H        0.47311193      -0.16984552      -2.16170764
H        1.24053442      -0.66026813      -0.85852277
