21
Properties=species:S:1:pos:R:3 pbc="F F F"
H        0.00000000       0.00000000       0.00000000
H        0.42330277      -0.73181123      -0.48304045
H        0.25714624      -1.54547203       0.02529907
H        0.08863404      -0.82076621      -1.44917083
H       -0.31498191      -1.70061386      -1.55416203
H       -0.66816270       0.34709048      -0.61737162
H       -0.39531651      -0.37845421       0.80533117
H       -0.67263103      -0.06116456      -1.53639495
H       -0.20681058      -1.33279157       0.76329929
H       -1.54933631       0.19560969      -0.23182330
H       -1.10497332      -1.82783961       0.72386521
H       -1.59349203      -0.49265414      -1.67479897
H       -1.83156919      -1.10529172       0.66636014
H       -2.15812135      -0.30788317      -0.90336239
H       -2.38022542      -1.18773079      -0.55037689
H       -2.01499820      -1.89681077      -1.10883522
H       -1.32711005      -1.57622695      -1.67012954
H       -1.36089289      -0.26044610       0.76293725
H       -1.47359681      -1.45808530      -1.71515596
H       -1.62632060      -2.36745954      -0.49111813
H       -1.71416104      -1.98022532       0.33994836
