20
Properties=species:S:1:pos:R:3 pbc="F F F"
H        0.00000000       0.00000000       0.00000000
H        0.36038706      -0.22961354      -0.93312520
H       -0.71824318      -0.69681674       0.22780931
H       -0.73227400      -1.25259554      -0.57154912
H       -0.16504776      -0.87414134      -1.26659429
H       -0.42838374      -2.20826077      -0.35319531
H        1.32040167      -0.38109434      -0.87407935
H        0.74340701      -0.11800810       0.61764151
H        1.39619935      -1.31019211      -1.15531421
H        0.54054821      -0.89261019       1.17162776
H        1.56971073      -0.32767844       0.12006134
H        1.77626753      -1.86641335      -0.38104689
H        1.86384964      -1.26978207       0.40156937
H       -0.40088814      -1.28263760       1.00846505
H        1.22032988      -1.57810438       1.04491758
H       -0.28439713      -2.20106816       0.70684290
H        0.36353305      -2.45890427      -0.86123705
H        0.54635024      -1.59668922      -1.42521739
H        1.11020672      -2.55190754      -0.19524725
H        0.72177148      -2.39457679       0.67325073
