21
Properties=species:S:1:pos:R:3 pbc="F F F"
H        0.00000000       0.00000000       0.00000000
H       -0.30820453      -0.91843063       0.09775501
H        0.91605562      -0.05341591      -0.45968771
H        0.30508170       0.29845181       0.93336779
H        1.66415524       0.34549528       0.11870742
H        1.02624428      -1.00047779      -0.65715456
H        1.20078623       0.64394712       0.98446691
H       -0.34356812      -1.11318922       1.10480130
H        2.30087090      -0.38631594       0.20300639
H        0.10308582      -0.42409608       1.63368630
H        0.27980924      -1.58629870      -0.26603761
H        0.97287828      -0.72254789       2.08943987
H        1.88799310      -1.26466966      -0.16632304
H        1.65706515      -0.13935709       1.71549106
H        1.60255051       0.08816832       1.67566609
H        0.27560139      -0.12104511       2.10780072
H        1.65388966      -1.96148634       0.54989338
H        0.26758596      -1.86684990       1.18571591
H        1.88040137      -1.52999675       1.45312810
H        0.65713167      -2.13104177       0.27369583
H        2.30087090      -0.58107454       1.21067345
