21
Properties=species:S:1:pos:R:3 pbc="F F F"
H        0.00000000       0.00000000       0.00000000
H        0.68725604      -0.43977645       0.53135377
H        1.32397175       0.29203478       0.61565274
H        1.03269219       1.08664489       0.13418442
H        2.21654415      -0.00641704       0.20630616
H        2.46426034       0.57940382      -0.59915918
H        2.04027915      -0.90020782      -0.13739365
H        1.16909373      -1.18718493       0.01897019
H        1.77279687       1.26489806      -0.60522705
H        2.19341779      -0.88330883      -1.09881127
H       -0.01513714      -0.55622131      -0.86238772
H        1.30084527      -1.18176067      -1.50815797
H        0.20686084       0.92909771      -0.20505352
H        2.44912314       0.02318251      -1.46154690
H        0.29647002       1.01805270      -1.22357273
H        0.08226570       0.09064579      -1.60744357
H        1.69147515       0.35553470      -2.06886530
H        0.67267632      -1.31157184      -0.87064850
H        1.30790591       1.14051116      -1.51171923
H        0.98455101      -0.30554792      -2.17511487
H        0.96448600      -0.38736165      -2.06414032
