20
Properties=species:S:1:pos:R:3 pbc="F F F"
H        0.00000000       0.00000000       0.00000000
H       -0.27385142       0.28314662      -0.89044607
H       -0.82485437      -0.47051406      -1.16694593
H       -0.23654076      -0.92909771       0.16996123
H       -0.79359400      -1.24440622      -0.56375080
H        0.53954053      -1.51228857       0.24510947
H       -0.31968799      -1.95348620      -1.03351641
H        1.32548511      -0.95650977       0.09861077
H       -0.04583651      -1.67033958      -1.92396235
H        1.02296233       0.01781246      -0.08096052
H        0.92466635      -1.65344059      -2.00077105
H        1.22347522      -0.74678367      -2.19246721
H       -0.36638600      -0.72115767      -1.98855746
H        0.49988496      -2.20910525      -0.50735164
H        1.29034448      -1.98579276      -1.10124588
H        1.77917385      -0.49614009      -1.43323231
H        0.46695095      -0.13533682      -2.11380672
H        1.34239173       0.29825893      -0.95211339
H        0.52012777       0.48302990      -1.43976343
H        1.83224535      -1.27671289      -0.71187460
