21
Properties=species:S:1:pos:R:3 pbc="F F F"
H        0.00000000       0.00000000       0.00000000
H        0.49089283       0.77460212       0.32722577
H       -0.14838916       1.50641334       0.38912773
H        0.21669149       2.14928102      -0.32274395
H       -0.97105587       0.29845181      -0.14594820
H        0.39135736      -0.31530851      -0.83395499
H        1.23099542       0.96936071      -0.35661706
H       -0.29921842      -0.26463187      -1.51849711
H        1.14016008       0.32755905      -1.11562800
H        1.09434843       1.85082924      -0.76316273
H       -1.16556907       0.13878287      -1.14093280
H        0.04912108       0.39645076      -2.14274883
H        0.90620476       0.82260716      -1.98368108
H       -0.44221765       2.30076170      -1.02342439
H        0.02021334       2.08292317      -1.85213721
H        0.93409789       1.72644234      -1.76923013
H       -1.15247774       1.66488731      -0.82529521
H       -1.36970174       1.00362730      -1.53897166
H       -0.50892746       1.12918246      -2.14764595
H       -1.07904387       1.20796156       0.07586712
H       -0.51464927       1.26645076      -2.16934156
