13
Properties=species:S:1:pos:R:3 pbc="F F F"
H        0.00000000       0.00000000       0.00000000
H       -0.33100656      -0.58582085      -0.77496612
H        0.39496371      -0.02959955      -1.24070096
H        0.53839731       0.02381636      -0.22586226
H        0.72349054      -0.93052101      -0.28101343
H       -0.15459245      -1.55389631      -1.06656837
H        0.71684951      -0.84607196      -1.77275944
H        0.62998641      -1.81808817      -0.45996922
H        0.55644792      -1.02619910      -0.66157675
H        1.14291465      -1.48893952      -1.09562302
H        0.63360232      -0.54396492      -0.23833877
H        0.18722010      -1.21117854      -1.18936849
H        0.76272190       0.12906682      -1.05818176
