21
Properties=species:S:1:pos:R:3 pbc="F F F"
H        0.00000000       0.00000000       0.00000000
H       -0.90169489       0.25064358      -0.26867270
H        0.84679961       0.28314662      -0.38835448
H       -1.08509409      -0.73873925      -0.06665708
H       -0.05069596       0.64899874      -0.72596049
H       -0.21146923      -1.00658059       0.04900782
H        0.45832229      -0.80183440      -0.77171475
H       -0.24728161      -0.43539479      -1.57689548
H       -0.19636410      -0.47277212      -1.63402247
H        0.65471137      -1.12649393      -2.60520411
H        0.65471137      -1.12649393      -2.60520411
H       -1.11526990       0.21832696      -0.62079960
H        0.65471137      -1.12649393      -2.60520411
H       -1.11526990       0.21832696      -0.62079960
H        0.65471137      -1.12649393      -2.60520411
H        0.65471137      -1.12649393      -2.60520411
H       -1.11526990       0.21832696      -0.62079960
H       -1.11526990       0.21832696      -0.62079960
H        0.65471137      -1.12649393      -2.60520411
H        0.65471137      -1.12649393      -2.60520411
H       -1.11526990       0.21832696      -0.62079960
