9
Properties=species:S:1:pos:R:3 pbc="F F F"
H        0.00000000       0.00000000       0.00000000
H        0.45279220       0.75366068      -0.41837266
H        0.66302025       0.02184945      -1.02526438
H        0.81747240      -0.28314662      -0.44679719
H        0.55128622      -1.10228741      -0.55773997
H       -0.38003716       0.42533186      -0.63501364
H       -0.51947796      -0.32832882      -1.23552394
H        0.38556427      -0.91307437      -1.17985916
H        0.08198571      -0.43357927      -0.61801380
