7
Properties=species:S:1:pos:R:3 pbc="F F F"
H        0.00000000       0.00000000       0.00000000
H        0.02715597      -1.02162731       0.09414954
H        0.59488565      -0.25064358      -0.72893739
H       -0.06245340      -0.93267232      -0.92436963
H        0.73625410      -0.87599194      -0.06765664
H        0.27924034      -0.54543805      -0.16172099
H       -0.05004852      -0.61326969      -0.94966644
