21
Properties=species:S:1:pos:R:3 pbc="F F F"
H        0.00000000       0.00000000       0.00000000
H        0.54069358       0.79439902       0.36042264
H        0.28159931       1.49121571       1.06798220
H       -0.46721563       1.50811470       1.69011676
H       -0.28262985       0.63473010       0.95200372
H       -0.95966786      -0.12438690       0.34189087
H       -1.18353200       0.11429495       1.23774803
H       -1.07327068       0.16272229       0.97282308
H       -0.08212346       0.31543827      -0.22108394
H       -0.39052922       0.64389831      -0.26332808
H       -0.52643120       0.75148904      -0.22873873
H       -1.22069383       1.32166052       0.09990180
H       -1.74766624       1.44963384       0.11192837
H       -1.23292971       1.32166052       0.07054406
H       -0.02602559       0.46566266      -0.55550808
H       -1.20743489       1.32166052       0.12881240
H       -0.94061124       0.82596588      -0.55583876
H       -1.71638107       1.99384439       0.33784729
H       -1.32518220       1.15686476      -0.74631310
H       -1.47562575       1.27646244      -0.72902644
H       -1.53352046       1.30658841      -0.71007812
