21
Properties=species:S:1:pos:R:3 pbc="F F F"
H        0.00000000       0.00000000       0.00000000
H        0.58115071      -0.52769721      -0.57607329
H        0.80675447      -1.44612789      -0.34445068
H        1.40361404      -0.29808366      -1.14541984
H        1.71998811      -0.87501609      -0.50090903
H        0.75798255      -0.47200781      -0.22585173
H        0.53478158      -0.96660632      -0.24525851
H        0.69863087      -0.85048330      -0.26280022
H        1.04628634       0.61350900      -1.45305526
H        1.30358267      -0.14352798      -1.79194844
H        1.03509688       0.02389479      -2.09053850
H        0.40450376       0.56557167      -0.79415077
H        0.02743444      -0.35607618      -0.37880599
H       -0.76520652       0.80028069      -0.46785665
H       -0.76520652       0.80028069      -0.46785665
H       -0.76520652       0.80028069      -0.46785665
H       -0.76520652       0.80028069      -0.46785665
H       -0.76520652       0.80028069      -0.46785665
H       -0.76520652       0.80028069      -0.46785665
H       -0.76520652       0.80028069      -0.46785665
H       -0.76520652       0.80028069      -0.46785665
