21
Properties=species:S:1:pos:R:3 pbc="F F F"
H        0.00000000       0.00000000       0.00000000
H       -0.04588301       0.64844042       0.65250099
H       -0.05105033       0.08439321      -0.96867567
H       -0.09059232       0.94203562      -0.40635026
H       -0.02012346       0.35223457      -0.08797008
H        0.02173166       0.51973152       1.13089657
H        0.17348918      -0.19319069       0.56782520
H        0.03940181       0.41272202      -0.11289740
H        0.66036040       1.17630041      -0.45989493
H        0.72241700       1.12051976      -0.46058577
H       -0.47293127       0.14202167      -0.06012014
H        0.82523048       1.06103730      -0.33985537
H       -0.46606335       0.12640342      -0.07622746
H        1.08464146       1.28531551      -1.23246074
H        1.14042938       1.25562429      -1.20969689
H       -0.43412980      -0.86902583       1.14935184
H        0.45782086      -0.94885725       1.36473250
H        0.45997676      -0.91696316       1.36525297
H        0.43734786      -0.98065507       1.42576349
H        0.91899562      -1.28639746       0.71086740
H        0.90191257      -1.25842440       0.68568480
