21
Properties=species:S:1:pos:R:3 pbc="F F F"
H        0.00000000       0.00000000       0.00000000
H        0.52691501       0.55577880      -0.60127473
H       -0.47420222       0.36102021      -0.71598065
H        0.04434960       0.58582085      -0.84152895
H       -0.40128958      -0.30929780       0.32090688
H       -0.77803802       0.05916354      -0.30183649
H       -0.88320470      -0.01849228      -0.26960337
H       -1.73000860      -0.52073181      -0.10704395
H       -1.70245361      -0.55410612      -0.07861674
H       -1.67299700      -0.58674157      -0.05218503
H       -2.44875646      -0.94633913       0.12956665
H       -2.83525705      -1.38026381       0.28068104
H       -2.83525705      -1.38026381       0.28068104
H       -2.84716845      -1.38026381       0.24070489
H       -2.84716845      -1.38026381       0.24070489
H       -3.22330880      -1.30493367      -1.15490222
H       -3.22330880      -1.30493367      -1.15490222
H       -3.22330880      -1.30493367      -1.15490222
H       -3.22330880      -1.30493367      -1.15490222
H       -3.22330880      -1.30493367      -1.15490222
H       -3.22330880      -1.30493367      -1.15490222
