9
Properties=species:S:1:pos:R:3 pbc="F F F"
H        0.00000000       0.00000000       0.00000000
H       -0.47398776      -0.23709527       0.75329894
H       -0.24519922       0.70500839       1.09007823
H       -0.31098443       0.34609553       1.51578128
H        0.34815708       0.85834283       0.55331868
H        0.56611621       0.58060265       1.57286835
H        0.44962838      -0.33754024       0.66185802
H        0.95314276       0.24565056       1.25719213
H        0.31164378       0.58319080       0.77896547
