21
Properties=species:S:1:pos:R:3 pbc="F F F"
H        0.00000000       0.00000000       0.00000000
H       -0.27385142       0.28314662      -0.89044607
H       -0.38149515      -0.47051406      -0.28342938
H       -0.36970416       0.01781246      -0.95724893
H       -0.24922819      -0.99094921       0.65240175
H       -0.91353971      -2.27652860       0.62323493
H       -0.95836717      -2.25267768       0.64617872
H       -2.12159181      -1.64416671       1.25568509
H       -2.12159181      -1.64416671       1.25568509
H        0.26020259      -2.88503957       0.03423697
H       -2.12159181      -1.64416671       1.25568509
H       -2.12159181      -1.64416671       1.25568509
H        0.26020259      -2.88503957       0.03423697
H        0.26020259      -2.88503957       0.03423697
H        0.26020259      -2.88503957       0.03423697
H       -2.12159181      -1.64416671       1.25568509
H       -2.12159181      -1.64416671       1.25568509
H       -2.12159181      -1.64416671       1.25568509
H       -2.12159181      -1.64416671       1.25568509
H       -2.12159181      -1.64416671       1.25568509
H       -2.12159181      -1.64416671       1.25568509
