21
Properties=species:S:1:pos:R:3 pbc="F F F"
H        0.00000000       0.00000000       0.00000000
H        0.90784711      -0.05341591       0.47569352
H        0.35611472       0.39891118       0.87600005
H        0.72798729       0.19475858       0.69672620
H       -0.93523526      -0.16785710      -0.51116168
H       -0.35290730       0.12343140       0.41431975
H       -1.33758020      -0.00306137       0.24058026
H       -0.45341063       0.12343140       0.47040176
H       -1.73525226       0.14855154       1.14206100
H       -1.75803399       0.14855154       1.09666204
H       -1.75803399       0.14855154       1.09666204
H       -2.13148308       0.16362362       0.36944926
H       -2.13148308       0.16362362       0.36944926
H       -2.15835357       0.16362362       0.38383067
H       -1.96120870       0.16362362       0.30368662
H       -1.51817811       0.12891217       0.03167188
H       -1.32762980       0.16819091       0.08663261
H       -1.18593073       0.05047294       0.15763354
H       -1.35542405       0.14855154      -0.01998648
H       -1.26589942       0.17869569       0.30094421
H       -1.28081870       0.17869569       0.54351246
