21
Properties=species:S:1:pos:R:3 pbc="F F F"
H        0.00000000       0.00000000       0.00000000
H       -0.49101692      -0.19475858      -0.87994057
H        0.01840621       0.36146271      -0.18393064
H       -1.06399155      -0.61412674      -1.69231844
H       -0.80033380      -0.25612953      -0.88568312
H       -1.72559690      -0.57166791      -1.21693635
H       -2.12779140      -0.78198385      -1.62688947
H       -2.37525177      -0.45365980      -0.50133640
H       -1.62572122      -0.43808150      -0.72591347
H       -1.06399155      -0.32283825      -0.59887350
H       -3.62528348      -0.82623810      -1.12861705
H       -3.62528348      -0.82623810      -1.12861705
H       -3.62528348      -0.82623810      -1.12861705
H       -3.62528348      -0.82623810      -1.12861705
H       -3.62528348      -0.82623810      -1.12861705
H       -3.62528348      -0.82623810      -1.12861705
H       -3.62528348      -0.82623810      -1.12861705
H       -3.62528348      -0.82623810      -1.12861705
H       -3.62528348      -0.82623810      -1.12861705
H       -3.62528348      -0.82623810      -1.12861705
H       -3.62528348      -0.82623810      -1.12861705
