21
Properties=species:S:1:pos:R:3 pbc="F F F"
H        0.00000000       0.00000000       0.00000000
H        0.15607943       0.96046287      -0.03480161
H       -0.63241732      -0.70907992      -0.21287318
H       -0.95675242       0.08553022      -0.67272353
H       -0.24104393       0.61148179      -0.15846658
H        0.21578139      -0.49124143      -0.63850945
H        0.02258869       0.60246563      -0.87286848
H       -0.06453676       0.18309745      -1.86315477
H        0.54659081       1.41945446      -1.42404222
H        0.34970969       1.40164196      -2.43113923
H        0.53898597       1.44482589      -1.49076104
H        0.65151745       1.07838631      -0.42608750
H        0.68881214       1.07838631      -0.43069267
H        0.72633171       1.73022580      -1.85606694
H        0.53898597       0.96908092      -0.46404898
H        0.48931515       1.49621212      -0.20447521
H       -0.08597267       0.71327972      -0.70350516
H       -0.09096527       0.65949941      -0.59164178
H       -0.09348464       0.63335037      -0.45879704
H       -0.03425670       0.55824316      -0.31067497
H       -0.24920702       0.98030770       0.19458449
