21
Properties=species:S:1:pos:R:3 pbc="F F F"
H        0.00000000       0.00000000       0.00000000
H        0.83968246      -0.37845421      -0.31585881
H        0.53309643      -0.87668937      -0.02340572
H       -0.63297540       0.41888687       0.42193708
H        0.26469046      -0.39535320       0.46973619
H        1.10520732      -0.57279557      -0.69232661
H       -0.23906469       0.07430783       1.15800226
H        0.31756693      -0.69706070       0.77267659
H       -1.12536168       1.28579211      -0.62730372
H       -1.07614374       1.32549500      -0.61562669
H        0.02058017       2.23210311      -0.35079920
H        0.02058017       2.23210311      -0.35079920
H        0.02058017       2.23210311      -0.35079920
H       -2.22656441       0.37918395      -0.87284315
H       -2.22656441       0.37918395      -0.87284315
H       -2.22656441       0.37918395      -0.87284315
H       -2.22656441       0.37918395      -0.87284315
H        0.02058017       2.23210311      -0.35079920
H       -2.22656441       0.37918395      -0.87284315
H       -2.22656441       0.37918395      -0.87284315
H        0.02058017       2.23210311      -0.35079920
