9
Properties=species:S:1:pos:R:3 pbc="F F F"
H        0.00000000       0.00000000       0.00000000
H        0.52815789      -0.26419187       0.83939010
H       -0.57095873       0.77460212      -0.14852150
H        0.21868652       0.99244058       0.37785065
H       -0.09459555      -0.68019658       0.30324084
H       -0.50643855       0.82253945       0.76901710
H       -0.48135084       0.16145682       1.48344088
H       -0.13092315      -0.60991168       0.90420431
H        0.07448614       0.47102401       0.89236689
