21
Properties=species:S:1:pos:R:3 pbc="F F F"
H        0.00000000       0.00000000       0.00000000
H       -0.13959605      -0.55577880       0.78719991
H        0.03958023      -0.53796637       1.79759717
H       -0.76170862      -0.25481975       1.32238662
H       -0.08140969       0.31968200       1.48432660
H       -0.43036368      -0.81092590      -0.56684542
H        0.18734384       0.43131128       0.61045694
H       -0.39843348      -0.95421851       0.34243202
H       -0.39804476      -0.82691145       0.35350114
H       -0.50574565      -1.95332110       0.34497735
H       -0.16145432      -2.33530974      -0.01992592
H       -0.16145432      -2.33530974      -0.01992592
H       -0.16145432      -2.33530974      -0.01992592
H       -0.16145432      -2.33530974      -0.01992592
H       -0.16145432      -2.33530974      -0.01992592
H       -0.16145432      -2.33530974      -0.01992592
H       -0.18782754      -2.34950209       0.02040058
H        0.10697986      -2.22586393      -0.43038085
H        0.10697986      -2.22586393      -0.43038085
H        0.10445364      -2.20724487      -0.42651808
H        0.10697986      -2.22586393      -0.43038085
