21
Properties=species:S:1:pos:R:3 pbc="F F F"
H        0.00000000       0.00000000       0.00000000
H        0.14728610      -1.02954066      -0.28719354
H        0.14649174       0.91159266       0.44817725
H       -0.47862816      -0.23514163      -0.11259291
H       -0.91424954       0.31652528       0.48258397
H       -0.88886666       1.00510943       0.73699355
H       -1.01183748       0.03967828       0.76668745
H       -0.13527523      -0.61353594       0.48445213
H       -0.01351301      -1.04552615       0.61957324
H        0.61476469       0.89378023      -0.46490929
H       -0.20316267       0.47777551      -0.38570902
H       -0.13495934       0.36804354      -0.36564848
H       -0.08790071      -0.67154348       0.52819782
H        0.77690494      -1.82297897       0.67374033
H        0.77690494      -1.82297897       0.67374033
H        0.77690494      -1.82297897       0.67374033
H        0.77690494      -1.82297897       0.67374033
H        0.77690494      -1.82297897       0.67374033
H        0.77690494      -1.82297897       0.67374033
H        0.77690494      -1.82297897       0.67374033
H        0.77690494      -1.82297897       0.67374033
