8
Properties=species:S:1:pos:R:3 pbc="F F F"
H        0.00000000       0.00000000       0.00000000
H        0.36038706      -0.22961354      -0.93312520
H       -0.79538780      -0.61471456      -0.20690145
H       -0.24048918      -0.77438349      -1.05538082
H       -0.64203632       0.07441562      -1.31298697
H       -0.82056504      -0.01453938      -0.30624056
H       -0.12971318       0.47946638      -1.38596988
H       -0.64368361       0.22693020      -0.73311847
