19
Properties=species:S:1:pos:R:3 pbc="F F F"
H        0.00000000       0.00000000       0.00000000
H       -0.53245163       0.67024595      -0.56620628
H       -0.67108190       0.14429438      -1.43653989
H       -0.79241633      -0.10435617      -0.03661126
H       -0.45916399      -0.65031576      -0.91524690
H        0.30593702      -1.14536381      -0.44315395
H        1.04260421      -0.50948942      -0.47549748
H        1.61990094      -1.09531021      -1.08939171
H        0.48848191      -0.49569461      -0.51944906
H       -0.26376686      -1.30503273       0.39545628
H       -0.33265063      -0.47274446       0.78390068
H        0.81206203      -1.51131487      -1.23997128
H       -0.41923338      -2.22668052       0.93445790
H       -0.21902315      -1.33081126       0.85914588
H       -0.30489165      -1.17299819       1.33087969
H       -0.33190903      -1.45839524       1.76064396
H       -0.44770804      -1.91711330       1.74532926
H        0.11381865       0.26230249      -0.87256646
H        0.70607549      -1.04737282      -1.19409585
