21
Properties=species:S:1:pos:R:3 pbc="F F F"
H        0.00000000       0.00000000       0.00000000
H       -0.19310522      -0.77460212      -0.55746114
H       -0.60160333      -0.28314662       0.71131027
H       -0.20610580      -1.74794257      -0.53509480
H        0.21295376      -0.80291802       0.39788342
H        0.07897517      -1.66811121       0.33708274
H       -1.11198461      -0.93158704       0.30219689
H       -0.67420900      -1.08229041      -0.04087397
H       -0.19291067      -1.10763228      -0.33402786
H       -2.44512630      -1.30416536       0.72503710
H       -2.44512630      -1.30416536       0.72503710
H       -2.44512630      -1.30416536       0.72503710
H       -2.44512630      -1.30416536       0.72503710
H       -2.44512630      -1.30416536       0.72503710
H       -2.44512630      -1.30416536       0.72503710
H       -2.44512630      -1.30416536       0.72503710
H       -2.44512630      -1.30416536       0.72503710
H       -2.44512630      -1.30416536       0.72503710
H       -2.44512630      -1.30416536       0.72503710
H       -2.44512630      -1.30416536       0.72503710
H       -2.44512630      -1.30416536       0.72503710
