13
Properties=species:S:1:pos:R:3 pbc="F F F"
H        0.00000000       0.00000000       0.00000000
H       -0.77018702      -0.01689900       0.59547228
H       -1.11005998      -0.65976655      -0.12877321
H       -1.34576964      -0.81129801       0.89706600
H       -0.70900512      -1.05199957      -0.79169351
H       -0.36294013      -1.84639859      -0.24169981
H        0.10595113      -0.94210368      -0.39311427
H       -0.41753662      -1.45720315       0.85631174
H       -0.64589554      -0.87587595       0.31005019
H       -0.84892911      -1.59323490       0.74834752
H       -0.42792434      -0.74181414      -0.14404036
H       -1.11945105      -0.58132720       0.99993765
H       -0.86654097      -1.44748735       0.55866265
