21
Properties=species:S:1:pos:R:3 pbc="F F F"
H        0.00000000       0.00000000       0.00000000
H       -0.30820453      -0.91843063       0.09775501
H       -0.38617718      -0.85764241      -0.41065878
H        0.42509025       0.75703698      -0.01866368
H       -0.17921758       0.18010455      -0.40634769
H       -0.22418293      -0.01821738      -0.58270615
H        0.03235570       2.04261637       0.51791817
H        0.03235570       2.04261637       0.51791817
H        0.03235570       2.04261637       0.51791817
H        0.03235570       2.04261637       0.51791817
H        0.03235570       2.04261637       0.51791817
H        0.03235570       2.04261637       0.51791817
H        0.03235570       2.04261637       0.51791817
H        0.03235570       2.04261637       0.51791817
H        0.03235570       2.04261637       0.51791817
H        0.03235570       2.04261637       0.51791817
H        0.03235570       2.04261637       0.51791817
H        0.03235570       2.04261637       0.51791817
H        0.03235570       2.04261637       0.51791817
H        0.03235570       2.04261637       0.51791817
H        0.03235570       2.04261637       0.51791817
