21
Properties=species:S:1:pos:R:3 pbc="F F F"
H        0.00000000       0.00000000       0.00000000
H        0.05321160       0.83173102       0.50344110
H        0.31211990       0.86484438       0.32044694
H       -0.20765123      -0.94056112      -0.48616153
H       -0.11168944      -0.10827285      -0.10350588
H        0.71313834       0.33155233       0.53421187
H        0.76755291       0.22078943       0.52825487
H        0.54658085       0.60052991       0.48364809
H        0.65402949      -0.73581296       0.16312125
H        0.59185708      -0.72213000       0.13985774
H        0.29964975      -0.59191352       0.02754754
H        0.02642518      -0.34620994      -0.05700243
H       -0.95519930       0.12882242      -0.38743332
H       -1.01110697       0.10956565      -0.40625200
H       -1.16465616       0.10646097      -0.45793700
H       -0.84610319       0.63689148      -0.39610341
H       -0.25737238      -0.22797459      -0.13772666
H       -0.06674388       0.38493782      -0.17223084
H       -0.03507532       0.37373421      -0.21213129
H       -0.63915789      -0.28431809       0.88201725
H       -0.60424638      -0.28431809       0.89992166
