5
Properties=species:S:1:pos:R:3 pbc="F F F"
H        0.00000000       0.00000000       0.00000000
H        0.38154608      -0.49897972      -0.74397767
H       -0.24597497      -0.98938280       0.11807574
H        0.45700574      -0.97157037      -0.62947011
H        0.18504810      -0.49956256       0.11321795
