21
Properties=species:S:1:pos:R:3 pbc="F F F"
H        0.00000000       0.00000000       0.00000000
H        0.11786898      -0.15148079      -0.95457917
H        0.10452307      -0.46966103      -0.84649527
H       -0.14285761       0.34939590       1.01076281
H       -0.12775508       0.02106708       0.15035015
H        0.77933443       0.00142771      -0.52587008
H        0.84421504       0.07996155      -0.42608416
H       -1.35932517      -0.00405305       0.91027051
H       -1.35932517      -0.00405305       0.91027051
H       -1.35932517      -0.00405305       0.91027051
H       -1.35932517      -0.00405305       0.91027051
H       -1.35932517      -0.00405305       0.91027051
H       -1.35932517      -0.00405305       0.91027051
H       -1.35932517      -0.00405305       0.91027051
H       -1.35932517      -0.00405305       0.91027051
H       -1.35932517      -0.00405305       0.91027051
H       -1.35932517      -0.00405305       0.91027051
H       -1.35932517      -0.00405305       0.91027051
H       -1.35932517      -0.00405305       0.91027051
H       -1.35932517      -0.00405305       0.91027051
H       -1.35932517      -0.00405305       0.91027051
