6
Properties=species:S:1:pos:R:3 pbc="F F F"
H        0.00000000       0.00000000       0.00000000
H        0.63772744       0.77136850       0.22719663
H       -0.77051127       0.67024595       0.10201295
H       -0.09614289       0.78825402       0.79437280
H       -0.06343373       0.17478335       0.90208912
H       -0.05016129       0.70052004       0.14593929
