6
Properties=species:S:1:pos:R:3 pbc="F F F"
H        0.00000000       0.00000000       0.00000000
H        0.59380746      -0.49897972      -0.58861941
H       -0.17238414      -0.20052791      -1.20278621
H       -0.59144711      -0.01781246      -0.83856839
H        0.07013454       0.63703406      -0.66149288
H        0.27876741       0.24283442      -0.26517451
