21
Properties=species:S:1:pos:R:3 pbc="F F F"
H        0.00000000       0.00000000       0.00000000
H        0.05739931      -0.52769721       0.81627315
H        0.19224833       0.87668937      -0.49777526
H        0.09245852       0.43773395       0.93782318
H        0.35813552       1.29538226       1.14323199
H        0.66116917       1.16028190       0.48195416
H        0.61662430       0.07380557       0.39938024
H        0.66280967       1.29557621       0.09993774
H        0.64613235       0.60452098       0.70286441
H        0.57677627       1.58078218       1.49071312
H        1.13353682       1.65148997       0.89865696
H        1.24880230       2.11707067       0.75741750
H        0.38230985       2.00544143       0.46575403
H        0.59355789       0.12499928       0.61458927
H        0.18075362       1.65148997       0.78100967
H        0.81201237       0.93010527      -1.31408596
H        0.83186853       0.94974464      -2.44532013
H        0.83186853       0.94974464      -2.44532013
H        0.83186853       0.94974464      -2.44532013
H        0.83186853       0.94974464      -2.44532013
H        0.83186853       0.94974464      -2.44532013
