21
Properties=species:S:1:pos:R:3 pbc="F F F"
H        0.00000000       0.00000000       0.00000000
H        0.42017129      -0.49897972       0.72286665
H        0.35930949      -0.63587439      -0.64391094
H        0.49505788      -1.36860609      -0.10260278
H        0.91418588      -0.33931077      -0.16244644
H        0.42394304      -1.20893717       0.90871924
H        0.39910716      -0.46839285       0.57627904
H        0.66437715      -0.87155801       2.09997368
H        0.66437715      -0.87155801       2.09997368
H        0.66437715      -0.87155801       2.09997368
H        0.66437715      -0.87155801       2.09997368
H        0.66437715      -0.87155801       2.09997368
H        0.66437715      -0.87155801       2.09997368
H        0.66437715      -0.87155801       2.09997368
H        0.66437715      -0.87155801       2.09997368
H        0.66437715      -0.87155801       2.09997368
H        0.66437715      -0.87155801       2.09997368
H        0.66437715      -0.87155801       2.09997368
H        0.66437715      -0.87155801       2.09997368
H        0.66437715      -0.87155801       2.09997368
H        0.66437715      -0.87155801       2.09997368
