21
Properties=species:S:1:pos:R:3 pbc="F F F"
H        0.00000000       0.00000000       0.00000000
H       -0.12270200      -0.91159266      -0.45526573
H       -0.34455624       0.58582085       0.76903760
H        0.84630340      -0.89469367      -0.36143658
H       -0.57815468      -0.21709716       0.38291293
H       -1.05701709      -1.00386977       0.37871072
H       -0.93262982      -1.35245299       0.72216630
H       -0.88925016      -0.14691085       0.64758509
H       -0.88344055      -1.02322197       0.05183735
H       -0.95849955       0.91817307       0.01674795
H       -0.94678879       0.20909315      -0.65043229
H       -1.42474473      -0.81343251      -0.56999457
H       -0.75915086      -0.31439239       0.22296220
H       -1.79778099      -1.76909781      -0.59951782
H       -0.66399294      -0.43670481       0.40452105
H       -0.94678879      -0.58756226       0.15319133
H       -0.50628543      -0.45290893       0.35028362
H       -1.01349604      -0.40417653       0.29820949
H       -2.30318809      -1.07762432      -0.10970795
H       -2.30318809      -1.07762432      -0.10970795
H       -2.30318809      -1.07762432      -0.10970795
