7
Properties=species:S:1:pos:R:3 pbc="F F F"
H        0.00000000       0.00000000       0.00000000
H       -0.30729049       0.46966103      -0.79564559
H       -0.56705809      -0.02931869      -0.00091237
H       -0.64825797       0.52360475      -0.92384768
H       -1.11800826      -0.13714455       0.10825723
H       -1.12895775      -0.05889447      -0.04956722
H       -0.41352203       0.35799721      -0.74106371
