21
Properties=species:S:1:pos:R:3 pbc="F F F"
H        0.00000000       0.00000000       0.00000000
H        0.69739223       0.29845181      -0.69129914
H       -0.20077050       0.79349989      -0.73073322
H       -0.31882870       0.27972591      -0.32926074
H        1.68117523       0.46630889      -1.10132635
H        1.03696322       0.95492816      -0.99290854
H        0.12262228       1.60716069      -1.15668404
H       -1.31512141       1.58204055      -1.32141769
H        1.38049579       1.33509457      -1.15737236
H       -1.31480455       1.48171139      -1.27044654
H       -1.31480455       0.19613194      -0.60549504
H       -1.32679129       2.86761999      -1.98626685
H       -1.32679129       2.86761999      -1.98626685
H       -1.32679129       2.86761999      -1.98626685
H       -1.32679129       2.86761999      -1.98626685
H       -1.31480455       0.19613194      -0.60549504
H       -1.31480455       0.19613194      -0.60549504
H       -1.32679129       2.86761999      -1.98626685
H       -1.32679129       2.86761999      -1.98626685
H       -1.32679129       2.86761999      -1.98626685
H       -1.32679129       2.86761999      -1.98626685
