21
Properties=species:S:1:pos:R:3 pbc="F F F"
H        0.00000000       0.00000000       0.00000000
H        0.24483983      -0.86484438      -0.37437752
H       -0.59848535       0.58582085      -0.59325629
H       -0.20880772      -0.44547620      -1.25894618
H        0.03304134       0.30193231      -0.59848160
H       -0.09116159      -0.39283657      -1.09037304
H       -0.75235945      -0.68412507      -1.96125722
H       -1.01491249      -0.81805450      -2.40186167
H       -1.01491249      -0.81805450      -2.40186167
H       -1.01491249      -0.81805450      -2.40186167
H       -1.01491249      -0.81805450      -2.40186167
H       -1.01491249      -0.81805450      -2.40186167
H       -1.05452597      -0.81805450      -2.37286782
H       -0.63578522      -0.82764584      -2.73337555
H       -0.63578522      -0.82764584      -2.73337555
H       -0.63578522      -0.82764584      -2.73337555
H       -0.35838747      -0.83312660      -2.89182758
H       -0.35838747      -0.80298239      -2.89182758
H       -0.35838747      -0.80298239      -2.89182758
H       -0.34060377      -0.80298239      -2.86707735
H       -0.35838747      -0.80298239      -2.89182758
