21
Properties=species:S:1:pos:R:3 pbc="F F F"
H        0.00000000       0.00000000       0.00000000
H        0.47219095      -0.55577880       0.64514065
H        0.30790710      -0.30513522       1.57155824
H       -0.83264899      -0.28314662      -0.41783309
H       -0.49016172      -0.95339257       0.27987504
H        0.30434561      -0.42744100       0.66126335
H       -0.95311564       0.40337542       0.45752552
H       -0.95311564       0.40337542       0.45752552
H       -0.95311564       0.40337542       0.45752552
H       -0.95311564       0.40337542       0.45752552
H       -0.95311564       0.40337542       0.45752552
H       -0.95311564       0.40337542       0.45752552
H       -0.95311564       0.40337542       0.45752552
H       -0.95311564       0.40337542       0.45752552
H       -0.95311564       0.40337542       0.45752552
H       -0.95311564       0.40337542       0.45752552
H       -0.95311564       0.40337542       0.45752552
H       -0.95311564       0.40337542       0.45752552
H       -0.95311564       0.40337542       0.45752552
H       -0.95311564       0.40337542       0.45752552
H       -0.95311564       0.40337542       0.45752552
