9
Properties=species:S:1:pos:R:3 pbc="F F F"
H        0.00000000       0.00000000       0.00000000
H       -0.73394406      -0.63587439       0.07106813
H       -1.59360588      -0.78735518      -0.36032030
H        0.12568285      -0.96543115      -0.01440045
H       -0.17466088      -1.04526258      -0.88144058
H       -1.20357144      -0.09053844      -1.00502443
H       -0.41635519      -0.46899265      -1.43528485
H       -0.80564576      -0.05963069      -0.64222962
H       -0.93487948      -1.06857634      -0.85138988
