6
Properties=species:S:1:pos:R:3 pbc="F F F"
H        0.00000000       0.00000000       0.00000000
H       -0.06381270       0.34709048       0.90747839
H        0.75217319       0.14102705       0.53325558
H       -0.25296795       0.22998205       0.34589922
H        0.51560938       0.45234096       1.54571617
H       -0.03745347       0.22879398       0.91460347
