21
Properties=species:S:1:pos:R:3 pbc="F F F"
H        0.00000000       0.00000000       0.00000000
H        0.79402828      -0.31375703       0.65969908
H        1.71669817      -0.33065602       0.34912619
H        0.47383204      -0.74524665       1.53412175
H        1.86928344      -0.41504923      -0.60881770
H        0.88064581      -0.15085736      -0.68706161
H        0.64492559      -0.31193012       0.22632474
H        1.19361317       0.12891570      -0.56726062
H        0.67000639       0.38723427      -0.49947867
H        1.02213824      -0.16050112       0.81193042
H       -1.01363611      -1.01897788       0.17059013
H       -1.01363611      -1.01897788       0.17059013
H       -1.01363611      -1.01897788       0.17059013
H       -1.01363611      -1.01897788       0.17059013
H       -1.01363611      -1.01897788       0.17059013
H       -1.01363611      -1.01897788       0.17059013
H       -1.01363611      -1.01897788       0.17059013
H       -1.01363611      -1.01897788       0.17059013
H       -1.01363611      -1.01897788       0.17059013
H       -1.01363611      -1.01897788       0.17059013
H       -1.01363611      -1.01897788       0.17059013
