12
Properties=species:S:1:pos:R:3 pbc="F F F"
H        0.00000000       0.00000000       0.00000000
H       -0.46163812      -0.66108263       0.54582143
H        0.82226396       0.18477097      -0.48765001
H       -0.06199187      -1.45569277       0.14966688
H        0.57650000      -1.95074081      -0.48324654
H        0.21596083      -2.72210932       0.08975092
H        0.35678616      -0.71175927       0.02077425
H       -0.07310233      -1.87663162       0.31324089
H        0.37564775      -0.79618710       0.35912871
H        0.71134025      -2.12060642      -0.40130043
H        0.61793816      -0.38236025       0.13746455
H        0.99623942      -0.57226598      -0.09934270
