21
Properties=species:S:1:pos:R:3 pbc="F F F"
H        0.00000000       0.00000000       0.00000000
H        0.73469222      -0.22961354      -0.67884368
H        0.44966754      -0.43977645      -0.74327427
H       -0.58714354       0.41936818       0.80219710
H        0.02256787       0.18227291       0.15383327
H        0.06872404       0.55806786       0.48040298
H       -0.33233184      -0.71794033      -0.43279541
H       -0.37260711      -0.71794033      -0.40645570
H       -1.27375245      -0.73757970       0.19474912
H        0.91238528      -0.69282019      -1.17098451
H       -1.27375245      -0.73757970       0.19474912
H        0.91088575      -0.64261019      -1.17009521
H        0.88571233      -0.69282019      -1.21421242
H        0.20672029       0.37636769      -1.91890109
H        0.20672029       0.37636769      -1.91890109
H        0.20672029       0.37636769      -1.91890109
H        0.20672029       0.37636769      -1.91890109
H        0.20672029       0.37636769      -1.91890109
H        0.20672029       0.37636769      -1.91890109
H        0.20672029       0.37636769      -1.91890109
H        0.20672029       0.37636769      -1.91890109
