9
Properties=species:S:1:pos:R:3 pbc="F F F"
H        0.00000000       0.00000000       0.00000000
H        0.54628479      -0.64623839      -0.66938484
H        0.26722991       0.24755239      -0.40231305
H        0.83783001      -0.56337351      -0.82768595
H        0.87634885       0.70880276      -0.10041006
H        1.03577983       0.40337542       0.21194156
H        1.02406657       0.17604525       0.44806975
H        0.66038382      -0.66943246       0.48328531
H        0.61714315      -0.38821137      -0.33720243
