21
Properties=species:S:1:pos:R:3 pbc="F F F"
H        0.00000000       0.00000000       0.00000000
H        0.45934626      -0.55622131       0.73002923
H       -0.80794179       0.61471456      -0.15059879
H       -0.58800668       0.66539121      -1.09776366
H        0.33178565       0.01598554      -0.85906959
H       -0.21281195       0.25064358      -0.91648775
H        0.38545966      -0.22519176      -1.29375637
H       -0.16056469       0.26025110       0.68096751
H       -0.05473343       0.23817772       1.12749135
H        0.79610932      -0.96716452       0.44009867
H        0.15899450       0.29895160      -0.33083332
H        0.55725205       0.19081296      -0.49016118
H        0.06607160       0.49746102       0.85476643
H       -0.39537159      -0.53110117       1.89780557
H       -0.39537159      -0.53110117       1.89780557
H       -0.39537159      -0.53110117       1.89780557
H       -0.39537159      -0.53110117       1.89780557
H       -0.39537159      -0.53110117       1.89780557
H       -0.39537159      -0.53110117       1.89780557
H       -0.39537159      -0.53110117       1.89780557
H       -0.39537159      -0.53110117       1.89780557
