21
Properties=species:S:1:pos:R:3 pbc="F F F"
H        0.00000000       0.00000000       0.00000000
H       -0.29363519      -0.58319080       0.72230726
H        0.06050197       0.55622131       0.86039597
H       -0.84372622      -0.01781246      -0.58406562
H       -0.57270283      -0.10486132       1.19218254
H       -1.28994501       0.38109872       0.24965054
H       -1.24464464      -0.16110510       0.23267764
H       -1.13184297       0.90683544       0.98920614
H       -1.47883272       0.05480762       0.73747587
H       -0.59157681       0.12548018       0.29013437
H       -2.29177690       1.73299313       0.73057115
H       -2.24221635       2.64458585       1.19947028
H       -2.53420997       1.44984651      -0.16893703
H       -2.18739867       1.46583200       0.68417740
H       -2.41004515       2.20871592       1.02100194
H       -2.84401226       2.82198572       0.17480832
H       -2.84401226       2.82198572       0.17480832
H       -2.84401226       2.82198572       0.17480832
H       -2.29868650       2.16257882       1.07913613
H       -3.59739351       2.53252983       0.25927764
H       -3.59739351       2.53252983       0.25927764
