21
Properties=species:S:1:pos:R:3 pbc="F F F"
H        0.00000000       0.00000000       0.00000000
H        0.88791460       0.34709048      -0.19798161
H        0.31164473       0.06394386       0.53400332
H        1.12498617       0.46285504       0.05164492
H        0.19612658       0.13714455       1.10598218
H        0.61665392       0.50358415       0.12142658
H       -0.81320620      -0.60458201       1.83121622
H       -0.81320620      -0.60458201       1.83121622
H       -0.81320620      -0.60458201       1.83121622
H       -0.81320620      -0.60458201       1.83121622
H       -0.81320620      -0.60458201       1.83121622
H       -0.79169261      -0.64727014       1.81575823
H       -1.02503228      -0.17520654       1.98341942
H       -1.02503228      -0.17520654       1.98341942
H       -1.02503228      -0.17520654       1.98341942
H       -1.02503228      -0.17520654       1.98341942
H       -1.02503228      -0.17520654       1.98341942
H       -1.15836930       0.09454399       2.07922578
H       -1.15836930       0.09454399       2.07922578
H       -1.03819633      -0.18546262       1.99287808
H       -0.59839845      -0.11848505       1.66501606
