8
Properties=species:S:1:pos:R:3 pbc="F F F"
H        0.00000000       0.00000000       0.00000000
H       -0.01035373      -0.77460212      -0.58986890
H       -0.28115153      -0.45929360      -1.47038579
H       -0.20704870      -1.02524567       0.33021247
H       -0.42403147      -0.98699081      -0.66466755
H       -0.74843031       0.46966103      -0.40906164
H       -0.76638937       0.25362861      -1.14692950
H       -1.06150472      -0.31506792      -0.60990953
