21
Properties=species:S:1:pos:R:3 pbc="F F F"
H        0.00000000       0.00000000       0.00000000
H       -0.56912082      -0.52595156       0.67290437
H       -0.46725032       0.36585209      -0.83734900
H       -1.03262031       0.05615519      -0.30768377
H       -1.23230207       0.00785488      -0.47010008
H       -0.93045890      -0.41936818      -0.35000566
H       -0.14672905       0.27696645       0.51401550
H       -0.85910070       0.59404969       0.27422947
H        0.21157193       0.45690513       0.61382091
H       -0.70096666       0.34527585       0.66994655
H       -0.64920688       0.44183305       0.72778499
H       -1.68820143      -0.06993256      -0.66011274
H       -1.67526579      -0.10400814      -0.67324966
H       -2.24039865      -0.54904407      -1.15979147
H       -0.83481413      -1.25544357      -0.92367423
H       -0.32561344      -0.57768130      -0.17412513
H       -0.31270206      -0.60953844      -0.15511948
H       -0.70430708       0.09916788      -0.46902370
H       -0.70488995       0.11615902      -0.42660975
H       -0.78923178       0.11615902      -0.17604166
H       -0.38800934       0.26633751       0.55736983
