8
Properties=species:S:1:pos:R:3 pbc="F F F"
H        0.00000000       0.00000000       0.00000000
H       -0.32983679       0.96807545      -0.08579928
H        0.09682941      -0.31530851       0.91611439
H        0.75845796      -0.03216189       0.26026642
H        0.22001463       0.30699283       0.37103134
H       -0.53946978      -0.15051278       1.48367119
H       -0.52864611       0.46087393       0.86703175
H       -0.47498810       0.54034853       0.96145684
