7
Properties=species:S:1:pos:R:3 pbc="F F F"
H        0.00000000       0.00000000       0.00000000
H        0.17388797      -0.66108263       0.69339287
H        0.40415710      -0.77460212      -0.42977849
H        0.19358158      -1.61674786       0.31970873
H       -0.44462287      -1.33360124      -0.35895458
H        0.58504510      -1.09101117      -0.32735774
H       -0.57146466      -0.56713122       0.32549250
