21
Properties=species:S:1:pos:R:3 pbc="F F F"
H        0.00000000       0.00000000       0.00000000
H        0.13252793       0.60990006       0.74734145
H       -0.29700184       0.89468008       0.40578496
H       -0.13473284       0.01416618      -0.19628745
H        0.81977785       0.39516622       1.62029505
H        0.81977785       0.39516622       1.62029505
H        0.81977785       0.39516622       1.62029505
H        0.17099696       0.97835702       2.05276799
H        0.81977785       0.39516622       1.62029505
H        0.77743447       0.42669010       1.63296437
H        1.20748520       0.11124805       1.48820829
H        1.20748520       0.11124805       1.48820829
H        1.46079528      -0.06900451       1.42934728
H        1.46079528      -0.06900451       1.42934728
H        1.46079528      -0.06900451       1.42934728
H        1.46079528      -0.06900451       1.42934728
H        1.46079528      -0.06900451       1.42934728
H        0.94264108       0.47918403       1.99169755
H        1.49557185      -0.10052839       1.39282119
H        1.47666907       0.02310969       1.93111300
H        1.43999481       0.06017646       1.91864133
