10
Properties=species:S:1:pos:R:3 pbc="F F F"
H        0.00000000       0.00000000       0.00000000
H       -0.46163812      -0.66108263       0.54582143
H        0.64258742       0.18477097       0.70781487
H        0.11230269      -1.37016249       0.20544139
H        0.74247801      -1.24577558       1.00589800
H        0.06318390      -0.54895884       1.33198059
H        0.66119176      -0.69681674      -0.36138052
H        0.58082765       0.17358905       0.81885940
H        1.33041251      -0.54895884       0.53461957
H        1.30377913      -0.51204574       0.34643435
