20
Properties=species:S:1:pos:R:3 pbc="F F F"
H        0.00000000       0.00000000       0.00000000
H        0.69739223       0.29845181      -0.69129914
H        0.02887994       0.96869779      -1.08776557
H        0.45348728      -0.47291669      -1.32282495
H       -0.37873176      -0.67024595      -0.67871684
H       -0.98501492      -0.03437155      -1.09841359
H       -0.31385019       0.22128928      -1.70196462
H       -0.72013623       0.71303695      -0.44684339
H       -0.63421392       0.69681674      -0.40686983
H       -1.02841413      -0.01963938      -0.47164556
H       -0.18074238       0.16295770      -1.69895983
H        0.96316916      -0.30356294      -1.70278430
H        0.42141980       0.35751969      -2.16919446
H        1.23088706       0.38869089      -1.15739489
H        0.64187086       1.05893683      -1.66449857
H        0.81925017       0.26784137       0.32469681
H        0.42906103       1.20994508       0.20843446
H       -0.49179998       0.77845550       0.07003048
H        0.44614658       1.22684407      -0.76495314
H        0.42348313       1.20994508       0.42026317
