7
Properties=species:S:1:pos:R:3 pbc="F F F"
H        0.00000000       0.00000000       0.00000000
H       -0.53245163       0.67024595      -0.56620628
H       -1.39228356       0.11402464      -0.63425606
H       -0.29743883       0.11446714      -1.33036578
H       -0.97792339      -0.52184975      -0.02431327
H       -0.12897003      -0.05218872       0.05789120
H       -0.36978698      -0.37036896      -0.76948738
