8
Properties=species:S:1:pos:R:3 pbc="F F F"
H        0.00000000       0.00000000       0.00000000
H        0.80713278      -0.08439321       0.53802919
H        1.22742236      -0.64061451      -0.21516299
H        0.38899961      -0.46354809      -0.82893080
H       -0.03223634      -1.29527915      -0.54813778
H        0.40891659      -0.96108258       0.89322424
H        0.79046267      -1.46006227       0.14924657
H       -0.43471459      -0.82561815       0.20385331
