8
Properties=species:S:1:pos:R:3 pbc="F F F"
H        0.00000000       0.00000000       0.00000000
H       -0.29363519      -0.58319080       0.72230726
H        0.28976291       0.58582085       0.79131234
H       -0.90940398       0.34709048       0.02394668
H        0.02054876      -0.07526177       1.45354676
H       -0.61670148       1.01733637       0.74396020
H       -1.17861819      -0.31399214       0.68618113
H       -0.92478979       0.32051963       1.43160248
