9
Properties=species:S:1:pos:R:3 pbc="F F F"
H        0.00000000       0.00000000       0.00000000
H       -0.96783787       0.05067664       0.09371616
H       -0.05257314      -0.97187352       0.02754727
H       -0.14218251      -1.06082857      -0.99097192
H       -0.12560114      -0.05341591      -1.01719964
H       -1.06618142      -0.88291854       0.16174541
H       -1.21931994      -0.89981753      -0.79967219
H       -0.20105731      -0.95323342      -0.91634238
H       -1.32233179      -0.12521541      -0.21877539
