21
Properties=species:S:1:pos:R:3 pbc="F F F"
H        0.00000000       0.00000000       0.00000000
H        0.14728610      -1.02954066      -0.28719354
H        0.90883923       0.33235219      -0.34187314
H        1.02990568      -0.69718850      -0.69197559
H        1.49788308      -0.96138036       0.18239486
H        1.31783557       0.10273865       0.57099247
H        1.51622796      -0.83936501       0.21545774
H        0.41135502      -0.51053107       0.85850614
H        0.40182334      -0.51053107       0.82651675
H        0.42287660      -0.54316652       0.82064390
H        0.41135502      -0.51053107       0.85850614
H       -0.04848194      -0.31530851      -0.91994077
H       -0.04848194      -0.31530851      -0.91994077
H       -0.04848194      -0.31530851      -0.91994077
H       -0.18558015       0.07873932      -1.42862129
H       -0.20334755       0.07873932      -1.42349648
H       -0.04848194      -0.31530851      -0.91994077
H       -0.04848194      -0.31530851      -0.91994077
H       -0.08073689      -0.31530851      -0.91767269
H       -0.99956924       0.00803149      -1.26057339
H        0.23174626      -0.05634154      -1.35802364
