10
Properties=species:S:1:pos:R:3 pbc="F F F"
H        0.00000000       0.00000000       0.00000000
H        0.19410905      -0.89379078       0.33394706
H       -1.01400745      -0.12438690       0.09818678
H       -1.12621951      -0.58793497      -0.81057912
H       -0.75939906      -1.04527164       0.46018815
H        0.17860460      -1.30315280      -0.54936671
H       -0.83486342      -1.46282172      -0.52267981
H       -0.03727047      -0.42330515      -0.90619576
H       -0.98881191      -0.60807610      -0.81405759
H        0.19137760      -1.03591120      -0.83367413
