8
Properties=species:S:1:pos:R:3 pbc="F F F"
H        0.00000000       0.00000000       0.00000000
H       -0.13959605      -0.55577880       0.78719991
H        0.82588828      -0.50236291       1.13116312
H        0.95460606       0.02533430       0.32306141
H        0.59991378       0.28440964       1.55337429
H       -0.20140505       0.81366080       0.49543220
H        0.78888291       0.93804771       0.73455846
H       -0.40528634       0.23862022       1.38021159
