14
Properties=species:S:1:pos:R:3 pbc="F F F"
H        0.00000000       0.00000000       0.00000000
H       -0.21671417       0.94706190      -0.06457304
H       -0.95501620      -0.19475858      -0.32146075
H        0.10001954       1.00321710      -1.09445345
H        0.32572290       0.05615520      -1.08057153
H       -1.18479788       0.71744835      -0.31639728
H       -0.68797672      -0.17694612      -1.31226671
H        0.30128327       0.05341591      -0.97964233
H       -0.12605782      -0.05246064       0.58966154
H       -0.12605782      -0.05246064       0.58966154
H       -0.07794182       0.05916864      -0.32333440
H        0.16624393       0.08468391      -0.49487609
H       -0.77580678       0.00456180       0.67568600
H       -0.77606267       0.02727456       0.65260178
