16
Properties=species:S:1:pos:R:3 pbc="F F F"
H        0.00000000       0.00000000       0.00000000
H       -0.77018702      -0.01689900       0.59547228
H       -1.04085684      -0.85446095       0.06769240
H       -0.21776044      -0.63161355       1.20397437
H       -0.52313924      -1.40621567       0.69920087
H        0.32058698      -1.42402816       0.11513525
H        0.60880476      -0.58582085       0.58266157
H       -0.26881188      -0.73007405      -0.59698677
H       -0.25670981      -0.83820730      -0.49875909
H        0.18990308      -0.65574294      -0.70530999
H        0.94233686      -0.44443786      -0.83556443
H        0.94233686      -0.44443786      -0.83556443
H       -0.20815152      -1.70062411       0.39218357
H        0.81751573       0.21664476      -0.13168204
H        1.04076779      -1.19184637      -0.13913369
H       -0.73679972      -1.20164442      -0.25559047
