6
Properties=species:S:1:pos:R:3 pbc="F F F"
H        0.00000000       0.00000000       0.00000000
H       -0.47549847       0.19475858       0.88842231
H        0.24471524       0.79439902       0.60197049
H       -0.20060062       0.92740691      -0.39115173
H       -0.92033076       0.31530851      -0.04040739
H       -0.66129136       1.13686228       0.52614415
