21
Properties=species:S:1:pos:R:3 pbc="F F F"
H        0.00000000       0.00000000       0.00000000
H       -0.30820453      -0.91843063       0.09775501
H        0.55663162      -0.77136850      -0.38532564
H       -0.03092897      -0.52595156       0.88076228
H        0.86479479      -0.24367130       0.37271920
H        0.52791417      -1.29906571       0.43245909
H        0.42535606      -1.17107821       0.38429061
H       -0.10328895      -0.01405776       0.12089497
H        2.03091908       0.29103565       1.15004957
H        1.79856610       0.43382215       1.33140254
H        1.76981592       0.29103565       1.44277775
H        1.82910895       0.33935279       1.36276031
H        1.70667207       0.38696742       1.44208229
H        1.79856610       0.43382215       1.33140254
H        1.73058891       0.52502716       1.32639790
H        1.70667207       0.38696742       1.44208229
H        1.71970367       0.33935279       1.45863521
H        1.91065955       0.29103565       1.30559385
H        1.72901869       0.43382215       1.39454103
H        1.65232825       0.29103565       1.53197730
H        1.76434636       0.43382215       1.36358213
