6
Properties=species:S:1:pos:R:3 pbc="F F F"
H        0.00000000       0.00000000       0.00000000
H        0.68725604      -0.43977645       0.53135377
H        0.66149271       0.52945983       0.62067515
H        1.40529442       0.08792076       0.13890317
H        0.78065282       0.58013648      -0.34436047
H        0.87236637      -0.44149083      -0.37885985
