6
Properties=species:S:1:pos:R:3 pbc="F F F"
H        0.00000000       0.00000000       0.00000000
H        0.11786898      -0.15148079      -0.95457917
H        0.57534993      -0.63587439      -0.46119091
H       -0.26524824      -0.85371292      -0.02073437
H       -0.21401273      -0.87061191      -0.99292278
H       -0.81724256      -0.18346697      -0.56790578
