6
Properties=species:S:1:pos:R:3 pbc="F F F"
H        0.00000000       0.00000000       0.00000000
H       -0.67230010      -0.60990006       0.35227177
H       -0.83800226       0.40247959       0.32138520
H        0.17127723      -0.45023113       0.91459465
H        0.04294157       0.56214851       0.82314974
H       -0.73200506      -0.08437905       1.23639762
