6
Properties=species:S:1:pos:R:3 pbc="F F F"
H        0.00000000       0.00000000       0.00000000
H       -0.92830116      -0.43148959      -0.07346868
H       -0.12314226      -0.83173102       0.49104014
H       -0.92830116      -0.48216623       0.89889586
H       -0.82168150       0.39891118       0.46800998
H       -0.10537589       0.00000000       0.99697375
