6
Properties=species:S:1:pos:R:3 pbc="F F F"
H        0.00000000       0.00000000       0.00000000
H        0.30968034       0.89379078      -0.23086154
H       -0.59915888       0.56143856      -0.57273465
H        0.75687337       0.08439321      -0.60669708
H       -0.04848194      -0.31530851      -0.91994077
H        0.22822517       0.58337295      -1.25447106
