6
Properties=species:S:1:pos:R:3 pbc="F F F"
H        0.00000000       0.00000000       0.00000000
H       -0.96783787       0.05067664       0.09371616
H       -0.19244356      -0.94706190       0.11874417
H       -1.20435083      -0.78739297       0.18098152
H       -0.50360084      -0.39891118       0.80036247
H       -0.67814755      -0.36124104      -0.56989902
