6
Properties=species:S:1:pos:R:3 pbc="F F F"
H        0.00000000       0.00000000       0.00000000
H        0.93511528      -0.39891118      -0.14054634
H        0.71300906      -0.69736302      -1.09706044
H        0.08219457      -0.92486274      -0.36241364
H       -0.17635512      -0.31890881      -0.97931176
H        0.56508267       0.26217145      -0.75218886
