6
Properties=species:S:1:pos:R:3 pbc="F F F"
H        0.00000000       0.00000000       0.00000000
H        0.44047090       0.80291802      -0.09821343
H        0.00000000       0.66108263       0.71486413
H        0.48334879      -0.15148079       0.83155787
H        1.00671756       0.60815942       0.73530787
H        1.02517343      -0.01781246      -0.04501048
