6
Properties=species:S:1:pos:R:3 pbc="F F F"
H        0.00000000       0.00000000       0.00000000
H        0.52815789      -0.26419187       0.83939010
H        0.59482306       0.66108263       0.39650500
H        0.14095485       0.50960183       1.24451327
H       -0.40286830      -0.11162928       0.82071549
H       -0.36083764       0.84585357       0.42166972
