6
Properties=species:S:1:pos:R:3 pbc="F F F"
H        0.00000000       0.00000000       0.00000000
H        0.49089283       0.77460212       0.32722577
H       -0.45244795       0.89261019       0.11688539
H        0.22172648       1.23815024      -0.54798651
H       -0.35313314       0.49504808      -0.82676977
H        0.67987317       0.37845421      -0.58532542
