21
Properties=species:S:1:pos:R:3 pbc="F F F"
H        0.00000000       0.00000000       0.00000000
H       -0.39122835      -0.01598554      -0.83368021
H        0.49712980       0.55622131      -0.70484304
H        0.02358624       1.14204216      -0.00778192
H       -0.69554019       0.74740851      -0.10453862
H       -0.41532952       0.99056137      -0.86362505
H        0.08154462       0.12966251       0.15049636
H       -0.44536448       0.39655238      -0.33130029
H        1.78710949       0.58225489      -1.46987545
H        1.77779317       0.73801756      -1.46435046
H        1.81316316       0.58225489      -1.42413330
H        1.72878253       0.47815189      -1.55744898
H        1.69520628       0.68623245      -1.59798908
H        1.87980998       0.63429070      -1.28112507
H        1.69520628       0.68623245      -1.59798908
H        1.87147999       0.73801756      -1.27765322
H        1.85545075       0.42621014      -1.32778859
H        1.90087378       0.53018773      -1.23288190
H        1.73671603       0.84086847      -1.50008011
H        1.81343699       0.84086847      -1.36538172
H        1.75034988       0.73801756      -1.50882661
