6
Properties=species:S:1:pos:R:3 pbc="F F F"
H        0.00000000       0.00000000       0.00000000
H        0.36038706      -0.22961354      -0.93312520
H       -0.37453055      -0.79439902      -0.53101873
H        0.14331454      -0.84507567       0.29198146
H        0.79614365      -0.23517561      -0.09518391
H        0.45875752      -1.11186504      -0.50859684
