21
Properties=species:S:1:pos:R:3 pbc="F F F"
H        0.00000000       0.00000000       0.00000000
H       -0.51304650      -0.77136850      -0.44169885
H       -0.28132975      -1.27034819       0.36166131
H        0.21219951      -0.43521070       0.83399749
H        0.55745286      -0.85764241      -0.08378427
H       -0.64342058      -0.48822188       0.48073894
H        0.42130148      -0.68697530      -0.18105993
H        0.61736721      -0.09962165       2.23871064
H        0.68496251      -1.01805234       2.55490208
H       -0.11488217      -0.68544251       2.65578222
H        0.30733189      -0.02435988       3.23264098
H        0.45220605      -1.00367904       3.50332427
H        1.24680352      -0.42327106       3.12499857
H        1.24068689      -0.29438025       3.03045917
H        0.53776228      -1.91648138       1.36277902
H       -0.40210870       0.87406915       4.20192909
H       -0.43594661       1.03167176       3.99574924
H       -0.46872333       0.69917196       4.29294300
H       -0.38304242       1.10302496       3.94143343
H        0.81550771      -2.07408404       1.49766278
H        0.86889040      -1.95762813       1.40018654
