21
Properties=species:S:1:pos:R:3 pbc="F F F"
H        0.00000000       0.00000000       0.00000000
H       -0.81573808      -0.52769721      -0.06456009
H       -0.67973077       0.25064358       0.65054190
H       -0.49944311       0.87668937      -0.18787281
H       -1.35927510       0.32046807      -0.25592262
H       -0.54385948       0.05627620      -0.82039040
H       -0.84732157       0.19608116       0.62484717
H       -0.93141514      -0.03490329       0.00113204
H       -0.87860763       1.12922549      -0.92720687
H       -1.07037616       0.12330246      -0.85888749
H       -0.19375956       2.33567667      -0.35494703
H       -0.43680421       2.37389994      -0.25448269
H       -0.23836204       2.34688473      -0.33056909
H       -0.33181828       2.36397529      -0.28728402
H       -0.26960075       2.32271051      -0.51374906
H       -0.06096497       2.27343106      -0.51475102
H       -0.58868736       2.37389994      -0.20777194
H        0.00537705       2.27343106      -0.39827490
H       -0.74532986       2.35632133      -0.17274955
H       -0.22480944       2.34688473      -0.30233634
H       -0.25385964       2.35632133      -0.20730907
