6
Properties=species:S:1:pos:R:3 pbc="F F F"
H        0.00000000       0.00000000       0.00000000
H        0.12256700       0.83228827       0.37498182
H       -0.27213761       0.29845181       0.94349962
H        0.99164724       0.22961354       0.13129064
H        0.49193707      -0.37179413       0.80107743
H        0.62669581       0.45383406       1.11706507
