11
Properties=species:S:1:pos:R:3 pbc="F F F"
H        0.00000000       0.00000000       0.00000000
H        0.79402828      -0.31375703       0.65969908
H        0.94606090      -0.19574893      -0.29477519
H        0.11182958      -1.03630495       0.40308011
H        0.21150506      -0.80564898      -0.48585263
H        1.10399079      -0.94278812      -0.01043898
H        0.00000000      -0.86484438       0.44733104
H        0.65824282      -0.64598006       0.42423257
H        1.31109762       0.24931327      -0.71132696
H        0.77225882      -0.11653882       0.08184946
H        0.34388822       0.23241426      -0.82214779
