6
Properties=species:S:1:pos:R:3 pbc="F F F"
H        0.00000000       0.00000000       0.00000000
H        0.24483983      -0.86484438      -0.37437752
H        0.33345664      -0.12438690      -0.96263105
H        1.22314346      -0.51544845      -0.66587710
H        0.90816414      -0.35577953       0.29777098
H        0.90883923       0.33235219      -0.34187314
