6
Properties=species:S:1:pos:R:3 pbc="F F F"
H        0.00000000       0.00000000       0.00000000
H        0.38154608      -0.49897972      -0.74397767
H       -0.09753149      -1.02162731       0.00944402
H        0.49363983      -0.49393010       0.57522929
H        0.99481654      -0.03038201      -0.19110548
H        0.86705339      -1.02162731      -0.15289080
