18
Properties=species:S:1:pos:R:3 pbc="F F F"
H        0.00000000       0.00000000       0.00000000
H       -0.02074104      -0.97334045      -0.01546210
H       -0.11002585      -1.09772730      -1.03029215
H       -0.73118019      -0.43977645      -0.46907696
H        0.63057506      -0.59874761      -0.64223230
H       -0.05123545       0.01689900      -0.97218841
H       -0.16802278      -0.93743837      -1.12601256
H       -0.13852996      -0.58367550      -0.23923677
H        1.44662321      -0.23289552      -0.13870323
H        0.71745110      -0.00934854       0.27661565
H        0.77496308       0.25442430       0.55087584
H        0.87871593       0.13556582      -0.59392852
H        2.60920453      -0.29452926      -0.35540637
H        2.99011087       0.59926152      -0.29130173
H        3.03114557       0.01607072      -1.06993234
H        2.00424004       0.45287925      -0.71418536
H        2.07537389      -0.10193738      -1.21358335
H        2.54280591       0.80965531      -1.15169692
