6
Properties=species:S:1:pos:R:3 pbc="F F F"
H        0.00000000       0.00000000       0.00000000
H        0.45279220       0.75366068      -0.41837266
H        0.87889117      -0.07807034      -0.69172978
H        0.63827145      -0.68549418      -0.26602274
H        0.16712534      -0.02441156      -0.80365837
H        0.93609107       0.22596347       0.24194452
