21
Properties=species:S:1:pos:R:3 pbc="F F F"
H        0.00000000       0.00000000       0.00000000
H        0.05739931      -0.52769721       0.81627315
H        0.45178947       0.49504808       0.77726287
H        0.02855918       0.94210368       0.40613899
H       -0.56626385       0.28102106       0.80264401
H        0.20672552      -1.89293194       1.27312231
H        1.09053087      -2.38797998       1.10838246
H        0.36440864      -2.50764656       0.46653324
H        0.51070482      -3.09705997       1.43863738
H       -0.28796083      -2.51123905       1.16980457
H        0.44023976      -2.13659716       1.58218741
H        0.58525515      -3.23945785       1.06964195
H        0.17431179      -1.89293194       1.28247142
H        0.50077891      -3.41619253       0.53199524
H        0.51277566      -3.41039801       0.57313919
H       -0.40747026      -2.20938182       0.87098229
H       -0.34327367      -2.20938182       0.97502297
H       -0.20467553      -2.23980522       1.13939428
H       -0.95100486      -2.48252654      -0.13673431
H       -0.95100486      -2.48252654      -0.13673431
H       -0.95100486      -2.48252654      -0.13673431
