7
Properties=species:S:1:pos:R:3 pbc="F F F"
H        0.00000000       0.00000000       0.00000000
H        0.45934626      -0.55622131       0.73002923
H        0.92557186       0.33235219       0.29356900
H        0.47170365       0.48383299       1.14157724
H       -0.36530453       0.08439321       0.89860523
H        0.09338152       0.81366080       0.52658993
H        0.51392156      -0.31333175       0.79966921
