6
Properties=species:S:1:pos:R:3 pbc="F F F"
H        0.00000000       0.00000000       0.00000000
H       -0.27385142       0.28314662      -0.89044607
H       -0.31445169      -0.61064416      -0.50632298
H        0.32682475      -0.84879911      -0.34754369
H        0.60965919       0.01604527      -0.69411218
H        0.11217345      -0.63096058      -1.27195275
