6
Properties=species:S:1:pos:R:3 pbc="F F F"
H        0.00000000       0.00000000       0.00000000
H        0.47219095      -0.55577880       0.64514065
H       -0.03398380      -0.02808160       1.28808987
H       -0.53993523      -0.49897972       0.63839650
H       -0.39198345       0.55773926       0.52521765
H        0.56803113       0.40625846       0.58426350
