8
Properties=species:S:1:pos:R:3 pbc="F F F"
H        0.00000000       0.00000000       0.00000000
H        0.73469222      -0.22961354      -0.67884368
H        0.73394406      -0.63587439       0.07106809
H        0.75792736       0.58319080       0.18301782
H        1.52152085       0.16929764      -0.15434915
H        1.17912555       0.15873575       0.41526133
H        0.70333046       0.01689900       0.67312819
H        1.19834733      -0.69554675       0.15494674
