11
Properties=species:S:1:pos:R:3 pbc="F F F"
H        0.00000000       0.00000000       0.00000000
H        0.87909138       0.39891118       0.34841394
H        0.66086912       0.02045697       1.21859348
H        1.39038610      -0.41756123      -0.00552741
H        0.56800526      -0.57693243       0.43915471
H        2.58149099      -0.83845484      -0.71192145
H        1.71980047      -0.28223354      -0.74975425
H        2.25519037      -0.15296066      -0.10226059
H        1.59071636      -1.10264671      -0.75542170
H        2.08311629      -1.10264671       0.14548695
H        0.56856787       0.01963938       0.97816956
