21
Properties=species:S:1:pos:R:3 pbc="F F F"
H        0.00000000       0.00000000       0.00000000
H        0.11786898      -0.15148079      -0.95457917
H        0.40359202      -0.63587439      -0.61712086
H        0.20373598      -0.45110342       0.31774712
H       -0.58229601      -0.63587439      -0.22637993
H       -0.31644705      -0.96514159      -0.64251083
H       -0.67931873      -0.34623939      -0.33823121
H       -0.23829696      -0.10837781      -0.12042364
H        0.16881439      -0.51400477      -0.47257879
H        0.18569849      -0.51400477      -0.47466359
H        0.65437871      -0.75298357      -0.50883317
H        0.68432426      -0.75298357      -0.54756486
H        0.21348411      -0.68908674      -0.69346422
H       -0.12706044       0.72903311      -1.52801800
H       -0.13891611       0.70686203      -1.55577493
H       -0.76281857       0.75974113      -1.39651847
H       -0.76281857       0.75974113      -1.39651847
H       -0.76281857       0.75974113      -1.39651847
H       -0.76281857       0.75974113      -1.39651847
H       -0.76281857       0.75974113      -1.39651847
H       -0.76281857       0.75974113      -1.39651847
