6
Properties=species:S:1:pos:R:3 pbc="F F F"
H        0.00000000       0.00000000       0.00000000
H       -0.72715116       0.63587439       0.12237607
H       -1.16690791      -0.22896999       0.04040625
H       -0.79971355      -0.05341591      -0.64103746
H       -0.42075825      -0.83887005      -0.09867475
H       -0.59135473      -0.18477097       0.75114590
