8
Properties=species:S:1:pos:R:3 pbc="F F F"
H        0.00000000       0.00000000       0.00000000
H       -0.02481474      -0.91159266      -0.47085762
H        0.74967039      -0.52769721       0.32801053
H        0.80739957      -1.32095456      -0.17437312
H       -0.02481474      -1.10635126       0.53680944
H        0.77961868      -0.38389546      -0.62080264
H        0.08350450      -1.23656130       0.47131619
H        0.15913653      -0.63294768      -0.29996011
