7
Properties=species:S:1:pos:R:3 pbc="F F F"
H        0.00000000       0.00000000       0.00000000
H        0.90784711      -0.05341591       0.47569352
H        0.06306279       0.49504808       0.89681339
H        0.63422966       0.63587439      -0.37613481
H        0.66869104       0.93432617       0.60522282
H       -0.01021517       0.99402779       0.06392056
H        0.72626626       0.06874317       0.27505374
