6
Properties=species:S:1:pos:R:3 pbc="F F F"
H        0.00000000       0.00000000       0.00000000
H       -0.26684549      -0.92909771       0.11675546
H        0.65235376      -0.53018653       0.33871585
H        0.66785824      -0.12082458      -0.54459792
H        0.54665470      -1.08640790      -0.51730365
H       -0.16797233      -0.48482379      -0.68398327
