12
Properties=species:S:1:pos:R:3 pbc="F F F"
H        0.00000000       0.00000000       0.00000000
H       -0.61304885      -0.15966894      -0.80746567
H       -0.83080173       0.55622131       0.23175460
H       -1.51574826       0.17268325      -0.44969502
H       -0.51597655       0.70770210      -0.67709059
H       -0.93190962      -0.40424156       0.10786298
H       -0.70498455      -0.00100422      -0.21215367
H       -0.00480527       1.29731631      -1.05816031
H        0.12095414       0.74153751      -1.84768891
H       -0.88902074       1.10255778      -1.54143667
H       -0.57475513       0.24255779      -1.38393390
H       -0.19216380       0.57161885      -1.49681175
