8
Properties=species:S:1:pos:R:3 pbc="F F F"
H        0.00000000       0.00000000       0.00000000
H        0.36329272       0.89468008       0.34769225
H        0.63862544       0.58582085      -0.54981393
H        1.18255651      -0.13672704      -0.06464654
H        1.21796227       0.96427506       0.13516945
H        0.85384661       0.01781246       0.56916827
H        1.19151556      -0.00115609       0.25887927
H        0.57989228       0.10593224      -0.00710350
