7
Properties=species:S:1:pos:R:3 pbc="F F F"
H        0.00000000       0.00000000       0.00000000
H        0.05110265      -0.33235219      -0.96966726
H        0.44725776      -0.82740027      -0.16262800
H        1.13872123      -0.14190608      -0.16869602
H        0.77915275      -0.51209176      -1.02198076
H        0.47531575       0.43001193      -0.75096869
H        0.96550417      -0.08439321       0.09349014
