7
Properties=species:S:1:pos:R:3 pbc="F F F"
H        0.00000000       0.00000000       0.00000000
H        0.87747955       0.49504808      -0.19565487
H        0.79859030      -0.36259434       0.36251175
H        0.41813868      -0.68549418      -0.55074370
H        1.28381455      -0.34251389      -0.62774932
H        0.38948601       0.03594032      -0.69852930
H        1.04200077      -0.76188207       0.33650362
