7
Properties=species:S:1:pos:R:3 pbc="F F F"
H        0.00000000       0.00000000       0.00000000
H        0.30968034       0.89379078      -0.23086154
H       -0.53173661       0.52793872      -0.69074595
H        0.55908906      -0.08439321      -0.79269046
H        0.66206610       0.51533657      -1.05588126
H       -0.07975066       0.52550685      -1.20252788
H        0.08962290       0.60990006      -0.24740940
