8
Properties=species:S:1:pos:R:3 pbc="F F F"
H        0.00000000       0.00000000       0.00000000
H        0.83968246      -0.37845421      -0.31585881
H        0.24167970      -0.98938280       0.12663528
H       -0.17108776      -0.74740851       0.68222684
H        0.73454034      -0.60806775       0.67890072
H        0.61921310       0.31530851       0.68206787
H        0.60576558      -0.44429314      -0.08405989
H        1.06243157       0.21643686       0.00435537
