7
Properties=species:S:1:pos:R:3 pbc="F F F"
H        0.00000000       0.00000000       0.00000000
H       -0.50007260       0.47200781      -0.61275923
H       -0.73769718       0.52769721       0.35411787
H        0.16449887       1.13309050      -0.34936687
H       -0.58995569       1.20381904       0.02319229
H        0.09493355       0.86889863       0.63991940
H        0.21276377       0.29592037      -0.12359758
