7
Properties=species:S:1:pos:R:3 pbc="F F F"
H        0.00000000       0.00000000       0.00000000
H        0.63772744       0.77136850       0.22719663
H       -0.36402982       0.85764241       0.43041345
H        0.40135109       0.30170748       1.04671216
H       -0.28335914      -0.08895500       0.98240447
H        0.30996561      -0.14332846       0.30661297
H        0.26614547       0.73325551       1.23087013
