14
Properties=species:S:1:pos:R:3 pbc="F F F"
H        0.00000000       0.00000000       0.00000000
H        0.46564069       0.84879911      -0.10382564
H        0.00000000       0.66108263       0.71486413
H        0.69065470      -0.18477097       0.66099674
H        1.13801110       0.61918557       0.63679540
H        0.96371472       0.08439321      -0.11042023
H        0.94537377       0.84585357       0.57277596
H       -0.99644947      -0.74172658      -0.74283612
H       -0.60981143      -1.14063776       0.12012672
H       -0.05416113      -0.51211303      -0.40713668
H       -1.22999144      -0.15590572       0.06685269
H       -0.35339308      -0.20658237       0.48764729
H       -0.52273494       0.07193422      -0.49461928
H       -0.92539740      -0.22220713       0.04975929
