7
Properties=species:S:1:pos:R:3 pbc="F F F"
H        0.00000000       0.00000000       0.00000000
H       -0.47398776      -0.23709527       0.75329894
H       -0.16793022       0.74222386       0.72907656
H       -0.04747599       0.37280479       1.38112903
H        0.52165622      -0.46670881       0.84970754
H        0.52867383       0.55090773       0.71654910
H       -0.03740758       0.32790133       0.78565121
