7
Properties=species:S:1:pos:R:3 pbc="F F F"
H        0.00000000       0.00000000       0.00000000
H        0.41703188       0.87984765      -0.00365971
H        0.95501620       0.19475858      -0.32146069
H       -0.01634958       0.28314662      -0.93146205
H        0.64537406       0.91730648      -0.98128653
H       -0.23122424       0.86662984      -0.56049174
H        0.72170234       0.23794854      -0.47605929
