6
Properties=species:S:1:pos:R:3 pbc="F F F"
H        0.00000000       0.00000000       0.00000000
H        0.35866648      -0.83756196      -0.47241095
H       -0.52977985      -0.92651695       0.03362665
H       -0.11936294      -0.46966103       0.84453052
H        0.77554917      -0.42820001       0.30649385
H        0.31180230      -1.27699912       0.41847539
