6
Properties=species:S:1:pos:R:3 pbc="F F F"
H        0.00000000       0.00000000       0.00000000
H       -0.32983679       0.96807545      -0.08579928
H        0.22660948       0.28314662       0.90362436
H       -0.66817057       0.46791759       0.56703979
H        0.56412911       0.75023699       0.23268482
H       -0.13079870       1.18172657       0.85253632
