8
Properties=species:S:1:pos:R:3 pbc="F F F"
H        0.00000000       0.00000000       0.00000000
H       -0.06381270       0.34709048       0.90747839
H        0.70532370      -0.06891423       0.61815655
H        0.81115776       0.84951639       0.31263202
H        0.46755350       0.61657995       1.26748228
H       -0.21401566       0.83170396       0.26762149
H        0.32745397       0.88785917       1.19917107
H        0.84240472       0.58582085       0.02218249
