6
Properties=species:S:1:pos:R:3 pbc="F F F"
H        0.00000000       0.00000000       0.00000000
H       -0.30729049       0.46966103      -0.79564559
H       -0.67140102      -0.28399965      -0.29817197
H       -0.32107875      -0.33467630      -1.20523715
H        0.20715696      -0.80995119      -0.36770386
H        0.43436503      -0.08895500      -0.92560136
