7
Properties=species:S:1:pos:R:3 pbc="F F F"
H        0.00000000       0.00000000       0.00000000
H        0.17388797      -0.66108263       0.69339287
H        0.10051775      -0.89379078      -0.37295461
H       -0.88099980      -0.52595156       0.02319873
H       -0.45478442      -1.30055368       0.43111163
H       -0.36816901      -0.51087946       0.72386444
H       -0.72957397      -0.64125460      -0.40940002
