21
Properties=species:S:1:pos:R:3 pbc="F F F"
H        0.00000000       0.00000000       0.00000000
H        0.58115071      -0.52769721      -0.57607329
H       -0.17431712      -1.13759732      -0.50292099
H        0.84321618      -0.92660838       0.33250558
H       -0.06840581      -0.84677696       0.22805385
H        0.75792736      -0.58319080       0.18301782
H       -0.97599465      -1.92201209      -1.41773343
H       -1.02539253      -1.79131913      -1.47410262
H       -1.10552394      -1.83574212      -1.36334109
H       -1.10552394      -1.83574212      -1.36334109
H       -1.00760555      -1.92201209      -1.38903558
H       -1.04287577      -1.83574212      -1.42654157
H       -1.07475460      -1.83574212      -1.39549112
H       -0.92571974      -1.96375501      -1.42364502
H       -1.00992680      -1.83574212      -1.45645416
H       -1.04287577      -1.83574212      -1.42654157
H       -1.10552394      -1.83574212      -1.36334109
H       -1.05323040      -1.70016432      -1.50586915
H       -1.00992680      -1.83574212      -1.45645416
H       -1.07396102      -1.74610829      -1.45959771
H       -1.00760555      -1.92201209      -1.38903558
