7
Properties=species:S:1:pos:R:3 pbc="F F F"
H        0.00000000       0.00000000       0.00000000
H       -0.46163812      -0.66108263       0.54582143
H        0.54048824      -0.15148079       0.79560471
H        0.42600340      -0.81647241      -0.45300972
H        0.17934826      -1.05356765       0.40214223
H       -0.51169467      -0.80292404      -0.23637038
H        0.49137381      -0.47631165       0.47039700
