7
Properties=species:S:1:pos:R:3 pbc="F F F"
H        0.00000000       0.00000000       0.00000000
H       -0.77018702      -0.01689900       0.59547228
H       -0.41502377      -0.73944688      -0.04100823
H       -0.26518273      -0.83337140       0.95833230
H        0.41544396      -0.19749701       0.67465651
H        0.07159334      -0.89431375       0.00418127
H        0.17501140       0.03377764       0.82371068
