7
Properties=species:S:1:pos:R:3 pbc="F F F"
H        0.00000000       0.00000000       0.00000000
H       -0.67230010      -0.60990006       0.35227177
H       -0.80009115       0.40771645       0.31419462
H        0.01966703      -0.34570819       1.06269979
H        0.03223759       0.63733000       0.86901921
H       -0.86937541       0.14933988       0.92907810
H        0.10436013      -0.44503593       0.73838133
