21
Properties=species:S:1:pos:R:3 pbc="F F F"
H        0.00000000       0.00000000       0.00000000
H        0.68725604      -0.43977645       0.53135377
H        0.66782165       0.52945983       0.62226230
H        1.24583578      -0.03041449      -0.15309662
H        0.93293250       0.65384674      -0.36138803
H        0.54101121      -0.22284263      -0.72351694
H        0.11992323       0.18418571      -0.10352123
H        0.86682314      -0.29811224       0.07794178
H        1.51471055       1.02450788       0.92397475
H        2.60630012       1.08614159       0.46901533
H        2.57169771       1.08614159       0.39356583
H        2.57169771       1.08614159       0.39356583
H        2.58318520       1.16803122       0.43395698
H        2.58706903       1.12714827       0.43217567
H        2.56533003       1.16803122       0.39676130
H        2.57169771       1.08614159       0.39356583
H        2.58966112       1.08614159       0.43098697
H        2.57169771       1.08614159       0.39356583
H        2.58966112       1.08614159       0.43098697
H        2.58318520       1.16803122       0.43395698
H        2.57297277       1.04506075       0.39292604
