6
Properties=species:S:1:pos:R:3 pbc="F F F"
H        0.00000000       0.00000000       0.00000000
H       -0.96783787       0.05067664       0.09371616
H       -0.24788007      -0.92909771       0.15295039
H       -1.24783409      -0.69948417       0.17928146
H       -0.52986121      -0.37845421       0.72393399
H       -0.70911729      -0.34327686      -0.55231410
