7
Properties=species:S:1:pos:R:3 pbc="F F F"
H        0.00000000       0.00000000       0.00000000
H        0.21426670       0.05341591       1.00227761
H       -0.76909679       0.28302944       0.81898057
H        0.32569027       1.05933893       0.83190304
H       -0.48168853       0.83756196       0.34610683
H       -0.00824779       0.50086796       0.25178027
H       -0.17127168       0.95327538       1.31566906
