7
Properties=species:S:1:pos:R:3 pbc="F F F"
H        0.00000000       0.00000000       0.00000000
H       -0.21671417       0.94706190      -0.06457304
H       -0.90144998       0.26419187      -0.41341797
H       -0.27328345       0.85354507      -1.13797033
H       -0.31999654      -0.15883458      -0.97601640
H        0.46460107       0.45201382      -0.65113997
H       -0.57606000       0.75988650      -1.04789674
