6
Properties=species:S:1:pos:R:3 pbc="F F F"
H        0.00000000       0.00000000       0.00000000
H        0.93511528      -0.39891118      -0.14054634
H        0.74671423      -0.69736302      -1.10426593
H        0.09050620      -0.92486274      -0.39220953
H       -0.13262290      -0.28800106      -1.01911938
H        0.59816539       0.28658301      -0.74438679
