6
Properties=species:S:1:pos:R:3 pbc="F F F"
H        0.00000000       0.00000000       0.00000000
H        0.15274149      -0.33235219      -0.95892441
H        0.37003270       0.66108263      -0.61164248
H       -0.82716215       0.05226156      -0.72230589
H       -0.42021197       0.78677255      -0.22967082
H       -0.28090489       0.51644695      -1.15780091
