21
Properties=species:S:1:pos:R:3 pbc="F F F"
H        0.00000000       0.00000000       0.00000000
H        0.42330277      -0.73181123      -0.48304045
H        0.07637703      -1.04711974       0.37035513
H       -0.40521741      -0.92656982      -1.05657971
H       -0.68412185      -0.72050637      -0.20329905
H       -0.20593143      -1.46362245      -0.35428631
H       -0.29127961      -0.79461014      -0.48146832
H        0.14415315      -0.90162408       0.57482278
H        0.10884860       1.01237965       0.12869799
H        0.04689384      -0.00924766       0.05278232
H        0.00747135      -0.99674994      -1.55972326
H        0.00747135      -0.99674994      -1.55972326
H        0.00747135      -0.99674994      -1.55972326
H        0.00747135      -0.99674994      -1.55972326
H        0.00747135      -0.99674994      -1.55972326
H        0.00747135      -0.99674994      -1.55972326
H        0.00747135      -0.99674994      -1.55972326
H        0.00747135      -0.99674994      -1.55972326
H        0.00747135      -0.99674994      -1.55972326
H        0.00747135      -0.99674994      -1.55972326
H        0.00747135      -0.99674994      -1.55972326
