21
Properties=species:S:1:pos:R:3 pbc="F F F"
H        0.00000000       0.00000000       0.00000000
H        0.69739223       0.29845181      -0.69129914
H        0.28705895       0.72994137       0.14462388
H        0.87747860      -0.49594721      -0.06694114
H        0.71082067       0.12438690       0.72978467
H        1.32540405       0.50284111       0.07624000
H        1.40486765       0.31771359       0.02181583
H        0.49528107       0.04591563       0.11463606
H        0.49528107       0.04591563       0.11463606
H        0.04377252       0.03425995      -1.43715954
H       -0.29216859      -0.24696115      -0.68735063
H       -0.26913691      -0.21827623      -0.66744000
H       -0.66342497       0.45314682      -1.15687299
H        0.06387538       0.11560658      -1.49042344
H       -0.70059824       1.15000248      -1.57939243
H       -0.70059824       1.15000248      -1.57939243
H       -0.70269543       1.13486266      -1.60322917
H       -0.73634684      -0.92377412      -1.74744153
H       -0.73634684      -0.92377412      -1.74744153
H       -0.73634684      -0.92377412      -1.74744153
H       -0.73634684      -0.92377412      -1.74744153
