5
Properties=species:S:1:pos:R:3 pbc="F F F"
H        0.00000000       0.00000000       0.00000000
H        0.88292891      -0.28314662      -0.29719594
H        0.15624571      -0.64899874      -0.92282176
H        0.18821841      -0.89379078      -0.33730221
H       -0.15288678      -0.15395066      -0.07861298
