5
Properties=species:S:1:pos:R:3 pbc="F F F"
H        0.00000000       0.00000000       0.00000000
H        0.21426670       0.05341591       1.00227761
H       -0.75381702       0.28302944       0.75045335
H       -0.11006837       0.84802604       0.54242730
H       -0.72652012       0.01689900       0.64803076
