21
Properties=species:S:1:pos:R:3 pbc="F F F"
H        0.00000000       0.00000000       0.00000000
H        0.68725604      -0.43977645       0.53135377
H        0.65529066       0.52945983       0.61864793
H        1.48482215      -0.52416968      -0.02075768
H        1.37454700       0.90791404       0.08245426
H        1.14411998       0.78352714      -0.90989405
H        1.72608483       0.17610282      -0.45507205
H        0.59894258      -0.63453501      -0.47243589
H        0.43576878       0.99230725      -0.16174684
H        1.10912454      -0.26367363      -1.06664181
H        0.31750631       0.08439321      -0.91658527
H        0.32927760       0.22093874      -0.83030814
H        1.55122697       0.20646194       0.52377188
H        1.29141259      -0.13955593      -1.01009703
H        1.99669361      -0.11207506       0.01072506
H        0.43931174       0.74005693      -0.42870742
H        1.99527335      -0.11207506       0.02866951
H        0.74679512       0.26156747       0.02463467
H        0.11319162       0.61260605       0.21148755
H        1.00951028       0.46285185      -0.33409756
H        0.10671119       0.60391271       0.23817569
