21
Properties=species:S:1:pos:R:3 pbc="F F F"
H        0.00000000       0.00000000       0.00000000
H        0.80713278      -0.08439321       0.53802919
H        0.75894290      -0.54794133      -0.37636942
H       -0.01091339       0.81647241      -0.62175363
H        0.36133230      -0.03232670      -0.92013955
H        1.38112330       0.73207921       0.29879791
H        1.63355303       0.64768600      -0.63780123
H        0.92349118       1.23105896      -0.40095413
H        1.60781121      -0.10220566      -0.10378122
H        1.30616450      -0.08439320      -1.08460534
H        0.83309478       0.66458499      -1.19191480
H        0.34542260       0.76440591       0.41792613
H        0.00954026       0.78221834      -0.55170763
H        0.75799674       0.29814538      -0.12394786
H        0.54369438      -0.32947296      -0.36222053
H        0.76546389       1.20669508      -2.47520494
H        0.76546389       1.20669508      -2.47520494
H        0.76546389       1.20669508      -2.47520494
H        0.76546389       1.20669508      -2.47520494
H        0.76546389       1.20669508      -2.47520494
H        0.76546389       1.20669508      -2.47520494
