12
Properties=species:S:1:pos:R:3 pbc="F F F"
H        0.00000000       0.00000000       0.00000000
H        0.88292891      -0.28314662      -0.29719594
H        1.23361528      -0.71463621       0.56545091
H        0.34536165      -0.81366080       0.40834105
H       -0.20297748      -0.20376074       0.93313348
H        1.48580098       0.16521144       0.23328924
H        0.93552011       0.80108583       0.72412074
H        0.00244194       0.61631489       0.51606864
H        0.27606547       0.28065068       1.40116870
H        1.28396297       0.02648371       1.20018804
H        0.56933129      -0.55044872       1.26938617
H        0.68396986       0.54366565      -0.16907904
