21
Properties=species:S:1:pos:R:3 pbc="F F F"
H        0.00000000       0.00000000       0.00000000
H        0.52815789      -0.26419187       0.83939010
H        0.56164181       0.70907992      -0.36031249
H        0.38311309       0.62012494       0.64643395
H        0.55753291      -0.73273170      -0.02447861
H        1.27820396       0.99222654       0.23502573
H        1.94238055       0.28314662       0.29933822
H        1.51321673       0.43644774      -0.52913380
H        1.51928401      -0.53051418       0.62645650
H        1.59965038      -0.46426189      -0.31486088
H        0.75393248      -0.81135237       0.02032611
H        1.27820396       0.35635215       0.97240257
H        0.84399772      -0.24904644      -0.70321542
H        0.23647261      -0.03600015      -0.83867764
H        0.32248318      -0.56369734      -0.02492166
H        0.28336966      -0.38496447       0.13622093
H        0.61713052      -0.24131453      -0.66381419
H       -0.38938981       1.22017145      -0.02149838
H       -0.38938981       1.22017145      -0.02149838
H       -0.38938981       1.22017145      -0.02149838
H       -0.38938981       1.22017145      -0.02149838
