21
Properties=species:S:1:pos:R:3 pbc="F F F"
H        0.00000000       0.00000000       0.00000000
H       -0.92501378       0.29845181       0.32954502
H       -0.08412553      -0.81366080      -0.52814764
H        0.09826393       0.01807022      -1.00039601
H       -0.68582106      -0.68927389       0.29393160
H       -1.41603065       0.49321038      -0.55039555
H       -1.56010556      -0.43409917      -0.14390507
H       -1.47968709      -0.35426775      -1.05796075
H       -0.81097746       0.24768376      -1.41738725
H       -1.02477300      -1.15664709      -0.63854373
H       -0.50342625      -0.64301240      -1.38640070
H       -0.48447496       0.75960165      -0.59364682
H       -0.94462639       0.29605356       0.19800186
H       -0.49595460      -0.78185689      -1.48762906
H       -0.83191752       0.48755777      -1.21629095
H       -1.34059584       0.35443857      -0.57573259
H       -1.16208386       0.11223108      -1.55437756
H       -1.06795073       0.15342337      -1.63928080
H        0.53328371      -0.92888594      -1.92739248
H        0.51693416      -1.21203256      -2.85885453
H        0.53328371      -0.92888594      -1.92739248
