21
Properties=species:S:1:pos:R:3 pbc="F F F"
H        0.00000000       0.00000000       0.00000000
H        0.15274149      -0.33235219      -0.95892441
H        0.59926367       0.75366068       0.14470506
H       -0.67797434       0.25239334      -0.59545338
H       -0.42639706       0.86484438       0.13524280
H        0.83432972       0.08439321      -0.49480569
H        0.19424167       1.50071883      -0.26291823
H        0.27802607       1.31594789      -1.21523166
H       -0.60782504       1.26375556      -0.79280764
H        0.65978938       0.43148369      -1.38762414
H       -0.25811499       0.46204683      -1.46236360
H       -0.36118817       0.56693882      -1.50480533
H        0.06319809      -0.06708758      -1.06967127
H        1.07241952       1.08601284      -0.70322752
H       -0.19806880      -0.17725152      -0.46158242
H       -1.42889726       1.86035204      -1.49969614
H       -1.42889726       1.86035204      -1.49969614
H       -0.87618637       2.59290314      -0.93223947
H       -1.07805967       1.57720542      -0.63667715
H       -0.72323227       2.64357972      -1.89249873
H       -0.86694050       1.00270963      -1.54417121
