12
Properties=species:S:1:pos:R:3 pbc="F F F"
H        0.00000000       0.00000000       0.00000000
H        0.05110265      -0.33235219      -0.96966726
H        0.37592325      -0.88857353      -0.17064708
H        1.33793044      -0.77056545      -0.07749557
H        0.90492594      -0.77056545      -0.97952974
H        0.80754662       0.18509984      -1.34083974
H        0.77060765       0.64286757       0.21496311
H        1.56624174      -0.16906267      -0.73659056
H        1.55801773       0.19751000       0.18272629
H        1.19096613       0.84374839      -0.59943497
H        0.23279741       0.58607841      -0.70221055
H        0.82519644      -0.26419187       0.55007029
