21
Properties=species:S:1:pos:R:3 pbc="F F F"
H        0.00000000       0.00000000       0.00000000
H        0.47219095      -0.55577880       0.64514065
H        0.40926167      -0.17732459       1.54005587
H       -0.47418290      -0.75366068       0.39396325
H       -1.10010862      -0.32217109       1.08342516
H       -0.87404287       0.11760536       0.24464518
H       -0.05802190       0.65440643       1.34529841
H       -0.52569520      -0.02584380       1.76582110
H       -0.23765893      -0.70298404       1.33712244
H       -0.96384364       0.74763095       1.11632931
H       -0.14158916       0.81442213       0.42151183
H        0.57835054       0.34862697       0.67512357
H       -0.57602519       0.13291639       1.84093046
H       -0.05802190       1.98527610       1.76252341
H        0.17128971       1.82560718       0.77497804
H       -0.42462850       2.94094133       1.83753860
H        0.85855043       1.91456223       1.53200090
H        0.16343910       2.69045162       0.32771590
H        1.01920593       2.38182855       0.61692792
H       -0.65430069       2.41142797       0.94391060
H        0.39787006       3.52676225       1.65414310
