21
Properties=species:S:1:pos:R:3 pbc="F F F"
H        0.00000000       0.00000000       0.00000000
H        0.90784711      -0.05341591       0.47569352
H        0.09263423       0.52595156       0.87642330
H       -0.77516890       0.28314662       0.51672226
H       -0.49112469       0.22973071       1.50150132
H        0.60538280      -0.03651691       1.40105319
H        0.80951548      -0.90136129       1.00301433
H       -0.04548091      -1.31072330       0.78060710
H       -0.05602968      -0.73350418       1.62493300
H       -0.40746081       0.12315203       1.35658395
H        0.40082210      -0.84781492       0.06927049
H       -0.79859668      -0.75494450       1.04891181
H       -0.83482796      -0.12349904       1.56415582
H        0.06911612      -0.94736606       0.18878007
H       -0.05691761       0.25428861       1.77828360
H       -1.19097650      -1.40684175       0.98993772
H        0.21894103      -0.61986202       1.23552108
H       -0.68079996      -0.79694170       1.55190110
H       -0.56976086      -0.08329299      -0.53399199
H       -0.84405100      -1.09153318       1.84333336
H       -0.57232463      -0.12022880      -0.52087754
