12
Properties=species:S:1:pos:R:3 pbc="F F F"
H        0.00000000       0.00000000       0.00000000
H        0.05321160       0.83173102       0.50344110
H        0.30612266       0.83173102      -0.40320385
H       -0.29152516       0.26419187      -0.94791335
H       -0.90534931       1.19758308       0.52868217
H       -0.30035269       1.55427885       0.00106841
H       -0.76940036       0.22961354       0.63923740
H       -0.92177969      -0.15148079      -0.27465728
H       -0.42371488       1.28180838      -0.93041188
H       -1.25038135       0.63004398      -0.95632774
H       -1.20155954       1.39234161      -0.43446505
H       -1.55248117       0.57936734      -0.03208292
