21
Properties=species:S:1:pos:R:3 pbc="F F F"
H        0.00000000       0.00000000       0.00000000
H       -0.96783787       0.05067664       0.09371616
H        0.22264534      -0.93864530      -0.13204154
H       -0.54675502      -0.70903176       0.50719583
H       -0.60487425       0.22961354      -0.79669863
H        0.11937565      -0.35282445      -0.96838665
H       -0.75489593      -0.50430524      -1.36934018
H       -1.28064537      -1.20112205      -0.82956439
H       -1.41094470      -0.28167555      -0.77029908
H       -1.51066339      -0.80221087       0.08765179
H       -0.81293350      -1.46329355      -0.06792364
H       -0.40432340      -1.31181276      -0.93864298
H       -0.65699768      -1.46459687      -0.07793911
H       -0.43292898       0.17194173      -0.81323910
H       -0.92801589      -1.31523108      -0.67900980
H       -0.16325927      -0.76001751      -1.50125957
H       -0.48438007       0.10189414      -0.20177239
H       -0.93475741      -1.29004240      -0.65212733
H       -0.33350122      -0.33783072      -0.77975434
H       -0.33609915      -0.37519234      -0.77973151
H       -0.24760932      -0.19412869      -1.48245180
