21
Properties=species:S:1:pos:R:3 pbc="F F F"
H        0.00000000       0.00000000       0.00000000
H        0.87747955       0.49504808      -0.19565487
H        0.82814258      -0.25236043       0.50596493
H       -0.06895967      -0.79461014      -0.55848020
H        1.62747717      -0.20176867      -0.12303232
H        1.54570389      -0.91084862      -0.78528589
H        0.64862394      -1.37439668      -0.60172510
H        1.29563451      -0.04209973      -1.08100426
H        0.71804875      -0.64184570      -1.39082372
H        1.19413137      -0.99980360       0.17482233
H        0.32604635       0.03712088      -0.87511039
H        1.28062844       0.08568612      -0.98175579
H        0.24036324      -0.82147324       0.22997570
H        0.65982246      -0.77679771      -1.28089499
H        0.08387007       1.09364414      -0.27938581
H        0.08387007       1.09364414      -0.27938581
H        0.08387007       1.09364414      -0.27938581
H        0.08387007       1.09364414      -0.27938581
H        0.07826304       1.11532497      -0.32206666
H        0.07555389       0.77278829       0.47060543
H        0.07555389       0.77278829       0.47060543
