12
Properties=species:S:1:pos:R:3 pbc="F F F"
H        0.00000000       0.00000000       0.00000000
H       -0.27385142       0.28314662      -0.89044607
H       -0.51273876      -0.54858440      -0.44410846
H        0.15975839      -0.96046287      -0.00701423
H        0.86190712      -1.14523387      -0.65578824
H       -0.06435573      -1.26324201      -0.93178129
H        0.86997581      -0.29938024      -0.08838932
H       -0.38950998      -0.55416209      -1.51448309
H        0.60807586       0.45428044      -0.64647973
H        0.43258426       0.13166583      -1.54318118
H        1.14305997      -0.25479949      -1.04530144
H        0.55216730      -0.83799028      -1.55402064
