21
Properties=species:S:1:pos:R:3 pbc="F F F"
H        0.00000000       0.00000000       0.00000000
H       -0.04850490       0.68549418       0.68978679
H       -0.37276319       0.21783850      -0.87272835
H       -0.40303293       0.77405977      -0.01073915
H       -1.35355377       0.86301476       0.36598483
H       -0.57558256      -0.79439902       0.30159369
H       -1.53582370      -0.03077602       0.70653826
H       -0.13366820      -0.27496868       0.82513505
H       -1.00647521       1.05134630       0.64772683
H       -1.03744912      -0.29496789       1.56394672
H       -0.77660835       0.07727760      -0.09648502
H       -0.14921021      -0.51280642       1.22982264
H       -0.89254051      -0.61027640       0.65419781
H       -0.74824339      -0.49432412       0.23945767
H       -0.66142982      -0.42806664       0.01041883
H       -0.09339269       1.15515518      -0.16195524
H       -0.17776756       1.10149884      -0.12173587
H        0.18298194       0.99244058      -0.67473871
H        0.21968153       1.16344428      -0.68481922
H       -0.80570734       0.49121302      -1.19548082
H       -0.80570734       0.49121302      -1.19548082
