21
Properties=species:S:1:pos:R:3 pbc="F F F"
H        0.00000000       0.00000000       0.00000000
H        0.87909138       0.39891118       0.34841394
H        0.74871731       0.11576456       1.27085173
H        0.98558259      -0.37245733      -0.32014734
H       -0.05864935       0.49897972       0.83405060
H       -0.15339100      -0.27238879       1.50437784
H       -0.60320443      -0.27562240       0.60708743
H        1.38363612      -0.38935632       0.56829441
H       -0.08070376      -1.10995078       0.91570961
H        0.84867370      -1.19890583       0.48948374
H       -0.02048493      -1.02162731       0.09582249
H        0.84867370      -0.79999465       1.43510199
H        0.14448667      -0.84211838      -0.17859490
H        0.69954962      -0.82861006       1.37618220
H        0.30122799      -0.95827818       0.17158082
H        2.05988264      -0.31864849       1.01907563
H        1.19790912      -0.06800491       1.39622319
H        1.42742157      -0.08903494       0.24409533
H        1.50681973      -0.54219544       0.38796294
H       -1.51860762      -0.53981423       0.22555977
H       -0.62617761      -0.97130382      -0.04035252
