21
Properties=species:S:1:pos:R:3 pbc="F F F"
H        0.00000000       0.00000000       0.00000000
H       -0.30729049       0.46966103      -0.79564559
H       -0.87370896      -0.14023903      -0.29041994
H       -0.89079446      -0.15713803      -1.26380754
H       -0.35726577      -0.99788141      -0.06445558
H        0.05848122       0.03817144      -1.65200520
H        0.63159680      -0.71548927      -1.42485988
H        0.11834335      -1.42456913      -0.99843580
H        0.60507852      -0.77136850      -0.30363563
H       -0.42246944      -0.96102107      -0.25953895
H        0.59567881       0.00611293      -0.64368033
H       -0.37366661      -0.88923550      -1.73255670
H        0.66572136      -0.66481262      -0.45309430
H       -0.88562024      -1.01362240      -0.85178697
H        0.72671527       0.05781082      -0.73901647
H        0.09338194       0.96883404      -1.45793390
H        1.15916419      -1.04455161      -2.37030244
H        1.15916419      -1.04455161      -2.37030244
H        1.15916419      -1.04455161      -2.37030244
H        1.15916419      -1.04455161      -2.37030244
H        1.69414830      -1.75363159      -2.76912403
