21
Properties=species:S:1:pos:R:3 pbc="F F F"
H        0.00000000       0.00000000       0.00000000
H       -0.47549847       0.19475858       0.88842231
H        0.31945798       0.77136850       0.59687620
H       -0.48201582       0.43148959      -0.79674423
H       -0.97232711       0.05067664      -0.00853261
H       -0.44026077       1.20713818       1.05325401
H        0.30086663       0.97611469      -0.46230298
H        0.00151208       1.66604853       0.20728421
H       -0.52173555       1.48127759      -0.59279865
H       -0.94095808       1.64691460       0.34335285
H       -1.31310201       0.80822700       0.68946564
H       -1.36645746       0.96789593      -0.32294869
H       -1.29117215       0.86297917      -0.33586827
H       -1.07841098       0.01872592       0.02839701
H       -0.44508243       0.47916472       0.04237151
H       -0.84604084       0.34505522       0.70176446
H       -0.87590468       0.25530356       1.50632644
H       -0.84805405       0.34505522       0.73449641
H       -1.02047956       2.74550056       0.90599227
H       -1.02047956       2.74550056       0.90599227
H       -1.02047956       2.74550056       0.90599227
