21
Properties=species:S:1:pos:R:3 pbc="F F F"
H        0.00000000       0.00000000       0.00000000
H       -0.77018702      -0.01689900       0.59547228
H       -0.51678419      -0.76430750      -0.06064618
H       -0.82969582      -0.98497444       0.93105012
H       -0.04005057      -1.20281291       1.45742226
H       -0.02345501      -1.60172415       0.51194966
H        0.88094383      -0.15966894       0.50176454
H       -0.54196543      -0.30813283       1.48829257
H        0.46352735      -0.91159266      -0.08640069
H        0.82903123      -1.20281291       0.92116964
H        0.52160972      -0.40820277       1.49196720
H       -0.07024032      -1.44980168       0.46732843
H        0.03020030       0.32832882       0.86001509
H        0.88094383      -1.17738926       0.86005557
H        0.14100099      -0.80225062       1.85623193
H        1.78923202      -0.13820264      -0.33747905
H        0.14100099      -0.80225062       1.85623193
H        0.14100099      -0.80225062       1.85623193
H        1.78923202      -0.18113524      -0.33747905
H        1.78923202      -0.18113524      -0.33747905
H        1.78923202      -0.18113524      -0.33747905
