20
Properties=species:S:1:pos:R:3 pbc="F F F"
H        0.00000000       0.00000000       0.00000000
H       -0.72715116       0.63587439       0.12237607
H       -0.86632442      -0.17778641      -0.39400351
H        0.65361977       0.26419187      -0.74586040
H       -0.02896726      -0.49309492      -0.77802753
H       -0.52388316       1.32136858      -0.53856313
H       -0.60250854       0.94291437      -1.43223619
H        0.11560167       0.20372182      -1.51753426
H       -1.31927097       0.70665401      -0.74546456
H       -0.92800093       0.04557139      -1.34374428
H        0.27964503       1.05252099      -1.06954896
H        0.25191024       0.92527449      -0.15453970
H       -0.11693048      -0.41797671      -0.91875976
H       -0.47100613       1.47819793      -0.73401773
H        0.56397754       0.72736365      -1.20440340
H       -1.39471066       0.20944786      -1.04145658
H       -1.38589501       0.23821831      -1.03065443
H       -0.54382324       1.54304719      -1.37989092
H       -0.51979584       1.53995883      -1.37710047
H       -0.67113984       0.40656793      -0.16322552
