21
Properties=species:S:1:pos:R:3 pbc="F F F"
H        0.00000000       0.00000000       0.00000000
H        0.97460508       0.08895500       0.30912116
H       -0.01794395       0.08895500      -1.02229595
H        0.26875645       0.81366080       0.46237111
H        0.80569518      -0.40609306      -0.66192126
H       -0.42720243       0.85764241      -0.36779284
H        0.67448360      -0.23709527      -0.58068532
H        0.21504483       1.58945370      -0.37342897
H        1.25472116      -0.08178328       0.99817359
H        1.10582209       1.19054246      -0.05608088
H       -0.06292576       1.19054246      -1.27726865
H        1.08290672       0.53293127       1.80187106
H        1.93735170       0.34816030       1.37310028
H        0.17845830       1.54989624      -0.41572678
H        1.72550011       1.32733035       1.70529032
H        1.44115448       1.76710677       0.88443398
H        0.02462260      -0.13194495      -0.10920501
H        0.75608200       1.38173032       1.45432734
H        2.22372198       1.23837531       0.81243759
H        1.57491016       1.22056282       0.01742202
H        1.81205344       0.25920528       0.35835338
