21
Properties=species:S:1:pos:R:3 pbc="F F F"
H        0.00000000       0.00000000       0.00000000
H       -0.90169489       0.25064358      -0.26867270
H        0.59511763       0.43977645      -0.63284487
H       -0.66214192      -0.72867560      -0.46069437
H        0.25536656      -0.52829897      -0.65973383
H        0.54692775      -0.02377164      -1.54724348
H       -0.38886571       0.13589729      -1.93726945
H        0.24447364       0.85844517      -1.57653451
H       -0.41281217      -0.68796790      -1.42220795
H       -1.03163433      -0.17941122      -1.27735281
H       -0.72604907       0.79990792      -1.24776292
H       -0.83633900       0.69567955      -1.01152301
H        0.40968639      -0.10214704      -1.60560346
H       -0.22142370       0.85764241      -0.51840621
H       -0.66737783       0.43197548      -0.77967978
H       -0.64034331       0.01758610      -1.61422825
H       -0.29569054       0.95196199      -0.64723122
H       -0.61749828       1.56773114      -1.97184730
H       -0.61749828       1.56773114      -1.97184730
H       -0.61749828       1.56773114      -1.97184730
H       -0.61749828       1.56773114      -1.97184730
