21
Properties=species:S:1:pos:R:3 pbc="F F F"
H        0.00000000       0.00000000       0.00000000
H       -0.58002573       0.67024595       0.51736289
H       -0.08620119       1.16922569       1.19206095
H        0.28776580       0.35493743       0.82652211
H       -0.50743383       0.77460212      -0.30093759
H       -0.68321663       1.61730790       0.31615070
H       -0.06841868       1.66798449      -0.43718609
H        0.87689984       1.40379262      -0.13735390
H        0.80823117       1.02593303       1.02534032
H        0.38647118       1.98174155       0.48950639
H        0.95623136       1.27657664       0.09618229
H        0.28775889       1.94966006       0.30762979
H       -0.66151339       1.59584165      -0.92031455
H        1.45447278       0.63484085       1.13409960
H        0.90844220       0.31530851       0.15288633
H        0.74416494       1.02401483      -0.32135344
H        0.42999429       1.86604238       0.64314151
H       -1.87086463       1.42488635       0.60293353
H       -1.87086463       1.42488635       0.60293353
H       -1.87086463       1.42488635       0.60293353
H       -1.87086463       1.42488635       0.60293353
