21
Properties=species:S:1:pos:R:3 pbc="F F F"
H        0.00000000       0.00000000       0.00000000
H       -0.19310522      -0.77460212      -0.55746114
H       -0.90940398      -0.34709048       0.02394668
H        0.47177663      -0.84879911      -0.07090727
H       -0.46278787      -0.01598554       0.79618442
H        0.43402630      -0.39443976       0.81979966
H       -0.99521202      -1.31632674      -0.01181695
H        0.31479898      -1.34384716       0.81430978
H       -0.23971169      -0.84771657       1.25063074
H       -0.61677063      -1.62699378       0.80613482
H       -0.05050385      -1.71523786      -0.05329458
H       -1.12126589      -0.79430068       0.72781825
H       -0.95501250      -1.23815024      -0.04957902
H       -0.87275046      -0.20994633       0.55578458
H       -0.87275046      -0.20994633       0.55578458
H       -0.56257868       0.07969034       0.95230681
H       -0.14781681       0.09680665      -0.11994385
H       -0.58438963      -0.12270486      -0.49160984
H       -0.56184375      -0.10932720      -0.49540421
H       -0.72209901       0.10208726      -0.48742422
H        1.14801729      -1.28341353       1.00382769
