12
Properties=species:S:1:pos:R:3 pbc="F F F"
H        0.00000000       0.00000000       0.00000000
H       -0.67230010      -0.60990006       0.35227177
H       -0.84053838       0.40247959       0.36261925
H       -0.40016231      -0.90835190       1.29577136
H       -1.08263338      -0.17841047       1.18819475
H       -0.63525319       0.70093143       1.32288396
H        0.24069491      -0.85767525       0.56447464
H       -0.38184416      -0.09401726       1.85889077
H        0.30554044       0.48309293       1.44744182
H        0.66709197       0.00716913       0.69971746
H        0.43545267      -0.57452863       1.47549510
H        0.06234499       0.83756196       0.58985323
