12
Properties=species:S:1:pos:R:3 pbc="F F F"
H        0.00000000       0.00000000       0.00000000
H       -0.56912082      -0.52595156       0.67290437
H       -0.97797602       0.26419187       0.16458869
H        0.61332637       0.61471456       0.54706556
H        0.40589193      -0.31269234       0.93463647
H       -0.89170140       1.01785254       0.77500916
H        0.43737942       0.41995597       1.53925288
H       -0.21981218       0.94706190       0.05307832
H       -0.29489729      -0.22829914       1.60533261
H       -0.53874004       0.71034616       1.69220388
H       -1.10260117       0.13513106       1.14875031
H        0.03758180       1.20262349       0.99940449
