12
Properties=species:S:1:pos:R:3 pbc="F F F"
H        0.00000000       0.00000000       0.00000000
H       -0.78841746      -0.36585209      -0.54577839
H       -0.43014666       0.75366068       0.44162238
H       -0.60363084       0.61471456      -0.55774522
H       -1.21302545       0.50301707       0.96348399
H       -1.59604895      -0.58369058      -0.04744253
H       -0.48335838      -0.07807034       0.94506341
H       -1.25425780      -0.52139008       0.91643280
H       -1.52459097       0.18581483      -0.50050008
H       -0.66286886      -0.74430633       0.34251827
H       -1.26417947       0.87130904       0.14008123
H       -1.89288318       0.06443077       0.36661887
