21
Properties=species:S:1:pos:R:3 pbc="F F F"
H        0.00000000       0.00000000       0.00000000
H        0.54069358       0.79439902       0.36042264
H        0.23901367       1.12675118       1.28338265
H       -0.25890729       1.47384167       0.52202606
H        0.46676385       0.04699051       1.05987871
H       -0.25998467       0.81221145      -0.28138801
H        0.21980336      -0.17084798       0.14357215
H        1.07407594      -0.44162878       1.30057716
H       -0.72448015       1.24475932       1.20712876
H        1.06580377      -0.46400684       1.27329254
H       -1.13738346       0.37991494       1.03503621
H       -0.50677735      -0.29083627       1.00734925
H       -0.04413638      -0.13116734       0.10524446
H       -0.33246493       0.17481625       0.36059171
H        0.55933315       1.42823815      -0.70149958
H        0.55933315       1.42823815      -0.70149958
H        0.55933315       1.42823815      -0.70149958
H        0.55933315       1.42823815      -0.70149958
H        0.55933315       1.42823815      -0.70149958
H        0.55933315       1.42823815      -0.70149958
H        0.55933315       1.42823815      -0.70149958
