12
Properties=species:S:1:pos:R:3 pbc="F F F"
H        0.00000000       0.00000000       0.00000000
H        0.63772744       0.77136850       0.22719663
H       -0.29831412       0.77136850       0.60771978
H        1.22519732       0.42427802       0.92179608
H       -0.56210726      -0.22961354       0.82742786
H        0.44520241       0.95197523       1.16919160
H        0.92028046      -0.59344232       1.10994005
H        0.07832205      -0.49380541       1.58464444
H       -0.25771648       0.36878443       1.50661480
H        0.68991768       0.15757620       1.77116203
H        0.23432223      -0.75799727       0.60526174
H        0.94888163      -0.20221847       0.24668726
