12
Properties=species:S:1:pos:R:3 pbc="F F F"
H        0.00000000       0.00000000       0.00000000
H        0.88791460       0.34709048      -0.19798161
H        0.73623067      -0.09268597       0.65738350
H        0.73623067       0.65472257       1.36073589
H        0.03499389       0.87304205      -0.41984892
H       -0.12330556       0.22323298       1.00249290
H        1.26375413       0.81675148       0.56767112
H        0.85267687       1.35947013      -0.03314991
H        0.75078833       1.57041216       0.90961057
H       -0.03572714       1.12673044       1.18860948
H       -0.56286496       0.75503397       0.33955860
H       -0.03608423       1.49839044       0.25262797
