21
Properties=species:S:1:pos:R:3 pbc="F F F"
H        0.00000000       0.00000000       0.00000000
H        0.44047090       0.80291802      -0.09821343
H        0.00000000       0.49897972       0.83611012
H        0.63336515      -0.73181123       0.10659222
H        1.45886803       0.67853111      -0.07139666
H        0.22651178      -0.43148959       0.90323478
H        1.03925431       0.96258694       0.71988684
H        0.88155419       0.05341591      -0.52281249
H        1.73285270       0.21517843       0.83661604
H        1.14284086      -0.57214230       0.98309910
H        0.81031203       0.17841047       1.38827097
H        0.14244014       0.58413273       0.74350202
H        1.58160794      -0.36595914      -0.03592715
H        1.21180594      -0.66441095       0.87374133
H       -0.46074370      -0.46317178       0.07754097
H       -1.38855088      -0.91678905      -0.23476115
H       -0.68294752      -1.52668905       0.04489359
H        0.46417901      -0.97426331       0.48223129
H       -1.65599990      -1.56522942       0.36217591
H       -2.00731397      -0.68717551       0.55119920
H       -0.29397574      -0.02104712       0.74254227
