21
Properties=species:S:1:pos:R:3 pbc="F F F"
H        0.00000000       0.00000000       0.00000000
H        0.19410905      -0.89379078       0.33394706
H       -0.51712513      -0.33235219       0.82185626
H       -0.05375630      -0.03390038       1.68761587
H        0.71432763       0.58319080       0.31254667
H        0.92266440      -0.90977633       0.89723152
H        0.93670487      -0.26690876       0.09732646
H        1.27766359      -0.00311941       0.89411616
H        0.04500866      -0.92667532       1.31853390
H        0.76369733       0.52232093       1.41245902
H       -0.19461459       0.60100323       0.78881407
H        0.88368154      -0.43281156       1.81172943
H        0.59599584       0.61790222       1.35689020
H       -0.02831092       0.56232786       0.93989092
H        0.17465729       0.95871705       0.28885227
H        1.04692686      -0.94720668       0.90242958
H       -0.35413158       0.10929853       2.15702105
H       -0.35413158       0.10929853       2.15702105
H       -0.35413158       0.10929853       2.15702105
H       -0.35413158       0.10929853       2.15702105
H        1.55636990      -0.13388513      -0.13997781
