21
Properties=species:S:1:pos:R:3 pbc="F F F"
H        0.00000000       0.00000000       0.00000000
H       -0.81573808      -0.52769721      -0.06456009
H       -0.80580151       0.34709048       0.42222381
H       -0.20060062       0.92740691      -0.39115173
H        0.50597245       0.40145534      -0.91789019
H       -0.04282916       1.14886379      -1.35780072
H       -0.73434198       0.59264249      -1.87331176
H       -0.95428652       0.90959448      -1.08754539
H        0.17033464       0.11830872      -1.78693342
H       -1.28231907      -0.43874222      -0.97434747
H       -1.58429646       0.01473829      -0.15813094
H       -1.48442912       0.50831968      -1.07576871
H       -0.56360942      -0.51756567      -1.71586525
H        0.20657772      -0.50066668      -1.12039304
H       -0.29679757      -0.58474553      -0.85680288
H       -0.69739628      -0.70233667      -0.76928103
H       -1.27728689       0.93028128      -0.19878423
H       -0.13456649       0.86752564      -0.24314672
H       -0.39619985       1.40630329      -2.28765106
H       -0.70723635       0.98741639      -1.59342837
H       -0.66955209       0.48465544      -2.77751946
