12
Properties=species:S:1:pos:R:3 pbc="F F F"
H        0.00000000       0.00000000       0.00000000
H        0.15607943       0.96046287      -0.03480161
H       -0.11148308      -0.34709048      -0.90286243
H       -0.73935360       0.58200866       0.02027198
H        0.52202141       0.33840370      -0.62567914
H       -0.80489224      -0.23165214      -0.51050270
H       -0.58155131       1.33891702      -0.54542309
H       -0.59771860       1.02360845      -1.46649861
H       -0.65689206       0.01899144      -1.43966079
H        0.19981581       0.38074088      -1.52961802
H       -1.18307722       0.63268530      -0.84494609
H        0.17521358       1.17013478      -0.99447274
