21
Properties=species:S:1:pos:R:3 pbc="F F F"
H        0.00000000       0.00000000       0.00000000
H       -0.02074104      -0.97334045      -0.01546210
H        0.58274877      -1.43688858      -0.70411807
H       -0.10246253      -0.49897972      -0.82980818
H        0.87976182      -1.62165952       0.20456439
H        0.89710349       0.34709048       0.15097807
H        1.59017777      -1.85127306      -0.49964476
H        0.54762578       0.26269728      -0.75389981
H        1.51933455      -1.25211763      -0.51247364
H        1.45676482       0.01473829      -0.64252371
H        1.47874308      -0.80518711       0.37165186
H        0.55067575      -0.40657020       0.66092342
H        0.94187176      -1.30569267       0.11198450
H        1.40401864      -2.68356133      -0.15182468
H        2.23084211      -2.18458152      -0.27609494
H        0.41307145      -1.29358983      -0.60424161
H        1.99481773      -2.45394778       0.65536678
H        2.49534011      -1.55926776       0.70383257
H        1.68501377      -1.70028710       1.18835640
H        0.94142753      -1.29092515       0.71132052
H        1.69948900      -1.19813931      -0.43441910
