12
Properties=species:S:1:pos:R:3 pbc="F F F"
H        0.00000000       0.00000000       0.00000000
H        0.13252793       0.60990006       0.74734145
H       -0.30671906       0.97931916      -0.01346659
H       -1.31083834       1.03273511       0.19199662
H       -0.84727931       0.28532660      -0.33698112
H       -0.16743062      -0.36585209       0.94416261
H       -1.63599646       0.07706982       0.37719887
H       -1.42564940       0.68696988       1.10647035
H       -0.61289048       1.26234865       0.90856504
H       -1.20098948      -0.26009202       1.08072937
H       -0.78526849      -0.48927552       0.24971062
H       -0.59451413       0.46245587       1.48500156
