21
Properties=species:S:1:pos:R:3 pbc="F F F"
H        0.00000000       0.00000000       0.00000000
H       -0.02481474      -0.91159266      -0.47085762
H        0.83970523      -0.34709048      -0.34997752
H       -0.48365468      -0.96226931       0.38643974
H       -0.02481474      -1.72806501       0.15099180
H        0.84800178      -1.37514079      -0.19402131
H        0.85076147       0.08895500       0.56711179
H        1.28615117      -0.79194999       0.45093957
H       -0.07016657      -0.22961354       0.99783677
H       -0.01316226      -1.37163126       1.13418341
H        0.03681737      -0.12470734       0.10197082
H        0.73965621      -0.80976242       1.31947279
H        0.76773912      -1.68645179       0.78660226
H        0.02824533      -0.40620011       1.01464701
H        0.45349222      -0.57765555       0.75786304
H        1.06340790      -0.72914106       0.93295085
H        1.01091361      -1.07655907       1.31625724
H        1.01927328      -1.04927027       1.35536146
H        1.24066830      -1.48339522       0.85461217
H        0.27400237      -1.93026614       0.06870615
H        0.27400237      -1.93026614       0.06870615
