21
Properties=species:S:1:pos:R:3 pbc="F F F"
H        0.00000000       0.00000000       0.00000000
H        0.58115071      -0.52769721      -0.57607329
H        0.65536827      -1.43435407      -0.22890490
H        1.30578685      -0.86004937       0.07027674
H        1.04503715      -0.60940576       0.97429454
H       -0.29228890      -0.66108263       0.65237868
H       -0.01573628      -1.58583486       0.46010387
H        1.03783834       0.20474620       0.21236275
H        0.18414336      -0.05318445       1.02724385
H        0.49734998       0.05326541       1.00796735
H        0.89186060      -1.53029537       0.72812122
H        0.28811562       0.01045781       0.60520238
H        2.05566835       0.68049115       0.34711993
H        0.08971340      -0.88901812       1.20619416
H        0.20852703      -1.06674731       1.33763099
H        2.06252480       1.22372413       0.13126577
H        2.06252480       1.22372413       0.13126577
H        0.72465390       0.08701736       0.23315889
H        1.37300420      -0.31745431       1.39088237
H        2.21897840       0.01087451       1.23319423
H        2.21897840       0.01087451       1.23319423
