21
Properties=species:S:1:pos:R:3 pbc="F F F"
H        0.00000000       0.00000000       0.00000000
H        0.14728610      -1.02954066      -0.28719354
H        0.12182679       0.92740691       0.42237246
H       -0.57147402      -0.30699277      -0.16622964
H       -1.08810866       0.33587480       0.44461724
H        0.35127336       0.21832699       1.04896712
H       -0.55497086      -0.18058419       0.77893889
H       -1.51612413       0.07964197       0.41074276
H       -0.73908275       0.97534424       0.09852880
H       -0.46588755       0.19061530      -0.15389913
H       -0.20880412       0.08810365       0.10504261
H       -0.69689912      -0.18978709       0.04738599
H       -0.73001879      -0.28873074       0.17249659
H       -0.25171453       0.31413722      -0.45217770
H        0.07140654       1.10282433       1.85818636
H        0.07140654       1.10282433       1.85818636
H        0.07140654       1.10282433       1.85818636
H        0.07140654       1.10282433       1.85818636
H        0.07140654       1.10282433       1.85818636
H        0.07140654       1.10282433       1.85818636
H        0.07140654       1.10282433       1.85818636
