21
Properties=species:S:1:pos:R:3 pbc="F F F"
H        0.00000000       0.00000000       0.00000000
H       -0.32486421      -0.96807545       0.10303906
H       -0.38617718      -0.85764241      -0.41065878
H        0.44502926       0.80291802       0.07489622
H       -0.39058083       0.33325699       0.24587902
H       -0.18833590       0.07110679       0.18148854
H        0.69799709      -1.37358773      -1.21889257
H        0.66992050      -0.73072016      -0.41935712
H       -0.15313554      -0.98388386       0.31478029
H       -0.02534848      -1.06826043      -0.02334866
H       -0.04565191       0.03463280       0.74529964
H        0.13136640       0.29182649       1.03451693
H        0.32753664       0.62687278       1.18650508
H       -0.17111036       0.70214242       0.47951090
H        0.38012365      -1.29785132       0.17101145
H        1.50213814      -0.23174044      -0.33877316
H        1.81010342      -0.48238403      -1.22781539
H        1.76004195      -0.73974866      -1.22821271
H        1.71163929      -0.66759843      -1.15654838
H        1.67987275      -0.63277781      -1.08889568
H        1.37552381      -0.12082011      -0.13970238
