11
Properties=species:S:1:pos:R:3 pbc="F F F"
H        0.00000000       0.00000000       0.00000000
H        0.02715597      -1.02162731       0.09414954
H        0.63246113      -0.22961354      -0.77498025
H        0.04514336      -0.96821141      -0.93061739
H        1.39594269      -0.60806775      -0.30388650
H        0.82829618      -1.40798783      -0.55467957
H       -0.31258240       0.37579495      -0.10521600
H        0.45628771      -1.26469517       0.27563047
H       -0.14575572      -0.17587197      -0.82366586
H        0.82095069      -0.59116876       0.48170850
H        0.11884695      -0.23734415      -0.42683941
