21
Properties=species:S:1:pos:R:3 pbc="F F F"
H        0.00000000       0.00000000       0.00000000
H        1.00909960       0.15966894       0.09771150
H        0.16390401      -0.30387914      -0.25455457
H        1.94120288       0.52552104       0.32278782
H        1.09300411       0.30768254      -0.10284829
H        1.80367851       1.04552126      -0.79097384
H        2.35116816       1.88308322      -1.01915991
H        2.17613912       2.00118661      -0.75490832
H        1.34795308       0.07055497      -0.71427745
H        2.00278807       0.92604804      -0.84578556
H        1.84963882       0.28434375       0.75109792
H        0.43930659       0.29080552      -0.62285978
H        1.79476845       0.72416890      -0.29006207
H        1.39202797      -0.10788929       1.37631845
H        1.71741986       0.31147888       0.43696874
H        1.89500344       0.47200602       0.54492933
H        0.91127223       0.32906228      -0.58461243
H        0.77651340       0.40337542      -0.71748585
H        1.15647459      -0.25779146       0.17140257
H        1.24047995      -0.12935559       0.14898372
H        1.49910665       0.08453225       0.15923738
