12
Properties=species:S:1:pos:R:3 pbc="F F F"
H        0.00000000       0.00000000       0.00000000
H        0.50421435      -0.31530851      -0.77097952
H        0.98853493      -1.25586963      -0.55907005
H        0.12892021       0.31530851       0.91215187
H        0.66820061      -1.53901625       0.31572980
H        0.38801450      -0.38150823       1.61971140
H        0.51284766      -0.87125587       0.32970506
H        0.10429853      -0.79160774      -0.10464966
H        0.70560652      -0.39761370       0.82547683
H        0.41376439      -0.04203337       1.98589957
H        0.57539952       0.35146642       1.28980732
H        0.42973199       0.10125926       1.07620180
