11
Properties=species:S:1:pos:R:3 pbc="F F F"
H        0.00000000       0.00000000       0.00000000
H        0.58115071      -0.52769721      -0.57607329
H        0.80675447      -1.44612789      -0.34445068
H        1.42308831      -0.29808366      -1.11620522
H        1.60249805      -0.84975058      -0.40079373
H        0.98286140      -0.40337542       0.38954154
H        0.63561457      -0.39891118       0.70013422
H        0.79941547      -0.35799721       0.28479958
H        1.31458068      -0.61184072      -0.08960414
H        0.97129714      -0.17604525       0.55322760
H        0.48968518       0.29826480       0.72082204
