21
Properties=species:S:1:pos:R:3 pbc="F F F"
H        0.00000000       0.00000000       0.00000000
H       -0.56912082      -0.52595156       0.67290437
H       -0.40736297       0.36585209      -0.86806196
H        0.92557186       0.33235219       0.29356900
H        0.24080044       0.45673910       1.04785001
H       -1.12392509       0.64899874      -0.27272379
H       -0.02164155       0.11451370       0.35182735
H       -0.40736297       0.38275108       0.10547560
H       -0.90776646      -0.17965597      -0.12863392
H        0.03064482      -0.18916604       0.14280188
H       -0.03232250      -0.18916604       0.15977269
H       -0.11632094      -0.08908316       0.12318087
H       -0.99024856      -0.07842183      -0.31020641
H       -0.15575778      -0.05435243       0.11941171
H       -0.20212540       0.01691392       0.10400605
H       -0.20212540       0.01691392       0.10400605
H       -1.91152501       0.03958627      -0.01799986
H       -1.91152501       0.03958627      -0.01799986
H       -1.91152501       0.03958627      -0.01799986
H       -1.91152501       0.03958627      -0.01799986
H       -1.91152501       0.03958627      -0.01799986
