10
Properties=species:S:1:pos:R:3 pbc="F F F"
H        0.00000000       0.00000000       0.00000000
H        0.42330277      -0.73181123      -0.48304045
H       -0.01376706      -1.58061028      -0.29180509
H        1.40329790      -0.96142477      -0.28251359
H        0.74216044      -1.34865904       0.22864667
H        0.20666629      -0.44503593       0.71651036
H        0.30736038      -0.60150278       0.62614834
H       -0.33477548      -1.88008666      -0.53111142
H        0.50088811      -1.49285245      -0.53844488
H        0.07284361      -1.20933545      -0.04915980
