21
Properties=species:S:1:pos:R:3 pbc="F F F"
H        0.00000000       0.00000000       0.00000000
H        0.85755634      -0.19475858       0.52914101
H       -0.55647141      -0.79461014      -0.08363680
H        0.30048418      -0.29956207       0.18816882
H       -0.57386744      -1.75295115       0.41174898
H        0.82206994      -0.96443766       1.03379202
H       -1.54736650      -1.88371682      -0.03471175
H        0.69638711      -1.92986882       1.01939154
H       -0.85718060      -1.19822264       0.00773825
H       -0.25038284      -2.01426196       0.80828655
H       -0.62404454      -3.29984140       1.35832047
H       -0.22254881      -4.24194527       1.42589021
H       -0.00386369      -4.73699331       2.29791546
H        0.11563432      -1.11591840       0.38105685
H        0.07130986      -2.68994141       1.66256559
H       -0.74160445      -1.17909932       0.10089402
H        0.04494917      -0.85918719       1.40683448
H       -0.78526908      -0.72408271       1.19087267
H        0.65217912      -4.26733208       2.84297252
H       -1.79113936      -1.19982767       1.39669418
H        0.00079191      -3.58183789       3.07503557
