6
Properties=species:S:1:pos:R:3 pbc="F F F"
H        0.00000000       0.00000000       0.00000000
H       -0.81573808      -0.52769721      -0.06456009
H       -0.52759928       0.46966103       0.67016292
H       -0.22382402       0.19485068       0.36074704
H       -1.36186194       0.11166382       0.51465797
H       -0.99438000      -0.47795039      -0.00636715
