11
Properties=species:S:1:pos:R:3 pbc="F F F"
H        0.00000000       0.00000000       0.00000000
H       -0.92501378       0.29845181       0.32954502
H       -0.48666745      -0.89468008      -0.12659509
H       -1.26666236      -0.36698288       0.12080038
H       -0.57660174      -0.87686765      -1.14880764
H       -1.04216743       0.48322278      -0.61924142
H       -1.32027721      -0.24259597      -0.89653790
H       -0.21387613       0.12522557      -0.80392861
H       -0.28834602       0.01692313      -0.89169371
H       -0.08461699      -0.43704247      -0.22958201
H       -0.03252310      -0.54780537      -0.21276963
