10
Properties=species:S:1:pos:R:3 pbc="F F F"
H        0.00000000       0.00000000       0.00000000
H        0.73469222      -0.22961354      -0.67884368
H        0.44966754      -0.43977645      -0.74327427
H       -0.61493462       0.41936818       0.78109735
H       -0.13291875      -0.01212141      -0.01564682
H       -0.70009547      -0.16052714      -0.18685919
H       -1.58757639      -0.02153051       0.15711457
H       -1.60887539      -0.02153051       0.19163305
H       -1.64176631       0.01884118       0.21987277
H       -1.55370963       0.26788738       0.57177502
