21
Properties=species:S:1:pos:R:3 pbc="F F F"
H        0.00000000       0.00000000       0.00000000
H        0.59380746      -0.49897972      -0.58861941
H       -0.20457500      -0.16662753      -1.14129591
H        0.05361497      -0.12438690      -1.01733828
H       -0.77926165      -0.46354809       0.48083076
H       -1.33804119      -0.47770670      -0.11337242
H       -1.07854474      -1.32318437      -0.37060165
H       -0.39377326      -1.19879746       0.38367927
H       -0.34071118      -0.92427319      -0.96203673
H       -1.80543113      -1.57634807      -1.20006847
H       -0.12218827      -0.56637484      -0.14588499
H       -0.05771056      -0.72305250      -0.58647513
H       -0.25512281      -1.21843684      -0.73920155
H       -0.43218258      -1.66944623      -0.34513450
H       -0.83822173      -1.55944908      -1.31088912
H       -1.88484752      -2.25411034      -2.10273242
H       -1.88484752      -2.25411034      -2.10273242
H       -1.88686121      -2.22225332      -2.12562060
H       -1.88484752      -2.25411034      -2.10273242
H       -1.88484752      -2.25411034      -2.10273242
H       -1.79372787      -3.47823954      -1.24063921
