8
Properties=species:S:1:pos:R:3 pbc="F F F"
H        0.00000000       0.00000000       0.00000000
H       -0.33100656      -0.58582085      -0.77496612
H        0.37817183      -0.02959955      -1.26589155
H        0.59011686       0.13006939      -0.27447391
H        0.68976057      -0.81699252      -0.07148170
H        0.06924149      -1.52792454      -0.84957165
H        0.72811955      -1.53954041      -0.79933947
H        0.77040124      -0.78051603      -0.90506369
