14
Properties=species:S:1:pos:R:3 pbc="F F F"
H        0.00000000       0.00000000       0.00000000
H       -0.96783787       0.05067664       0.09371616
H       -0.19223598      -0.95433736       0.01861429
H       -0.58783579      -1.38582695      -0.82438123
H       -0.43069702      -0.15966894      -0.91778523
H        0.46502364      -1.25506127      -1.02063239
H        0.24351959      -0.33663064      -1.25617862
H        0.05469036      -0.82357168      -0.18470937
H       -0.60578966      -0.23054445       0.83127350
H        0.63218433      -0.29329360      -1.56772578
H        0.22250769      -0.95904803      -1.33438385
H        0.48208737      -0.87022603      -0.86561632
H       -0.98757261      -0.78221136       0.20020837
H       -0.73576260      -0.79111439      -0.50098300
