7
Properties=species:S:1:pos:R:3 pbc="F F F"
H        0.00000000       0.00000000       0.00000000
H        0.15274149      -0.33235219      -0.95892441
H        0.52886558       0.81366080      -0.07948764
H        0.39767095       0.54816175      -1.53236318
H        0.09433036       0.87984765      -0.40623978
H        0.42300045       0.49993607      -1.24631631
H        1.04329300       0.57642984      -0.66651255
