9
Properties=species:S:1:pos:R:3 pbc="F F F"
H        0.00000000       0.00000000       0.00000000
H       -0.02074104      -0.97334045      -0.01546210
H       -0.15369426      -1.96272326      -0.25372460
H       -0.86907852       0.05067664      -0.43611386
H       -0.98406768      -0.91475451      -0.48884955
H       -0.28760281      -0.77136850      -0.61286151
H       -0.62945628      -1.21106505      -0.49246758
H       -0.63471806      -1.20906258      -0.63930547
H       -0.48223883      -0.12870887       0.02966009
