10
Properties=species:S:1:pos:R:3 pbc="F F F"
H        0.00000000       0.00000000       0.00000000
H        0.83968246      -0.37845421      -0.31585881
H        0.53309643      -0.87668937      -0.02340572
H       -0.62110400       0.47064883       0.38324213
H       -0.08591253      -0.86070383       0.65843749
H        0.40564471      -0.42639157       0.49509814
H       -0.02317637      -0.26834035       0.99712187
H       -0.74178624       0.75604880      -0.00916412
H       -0.83338183       0.45778400       0.85743046
H       -0.74178624       0.39805159       0.83946764
