21
Properties=species:S:1:pos:R:3 pbc="F F F"
H        0.00000000       0.00000000       0.00000000
H        0.80713278      -0.08439321       0.53802919
H        1.72609913      -0.45024529       0.26421002
H       -0.35611492       0.39891118       0.87599999
H        0.43111479       0.01167691       1.15645826
H        0.96104741      -0.09224808       0.63145894
H       -0.63413703      -0.07070783      -0.50831395
H       -0.65316045      -0.04245880      -0.48692006
H       -1.03970742       0.56370687       0.36639345
H       -0.77465212       0.46483523      -0.39877486
H       -1.81730032       1.33199215       0.07389051
H       -1.82708657       1.33199215       0.10135972
H       -1.81730032       1.33199215       0.07389051
H       -1.82708657       1.33199215       0.10135972
H       -1.81730032       1.33199215       0.07389051
H       -1.81730032       1.33199215       0.07389051
H       -1.81730032       1.33199215       0.07389051
H       -1.82708657       1.33199215       0.10135972
H       -1.82708657       1.33199215       0.10135972
H       -1.81730032       1.33199215       0.07389051
H       -1.80655599       1.33199215       0.04678136
