10
Properties=species:S:1:pos:R:3 pbc="F F F"
H        0.00000000       0.00000000       0.00000000
H       -0.46163812      -0.66108263       0.54582143
H        0.82226396       0.18477097      -0.48765001
H       -0.47151384      -1.45569277      -0.01681352
H        0.25289109      -1.91924083       0.54326200
H        0.69363183      -1.19669294      -0.03725153
H        0.49881819      -0.64327019       0.18453172
H        0.13111797      -0.90686119       0.65980595
H        0.83761859      -0.73207414      -0.40106326
H        0.37099373      -0.61814702      -0.49161011
