21
Properties=species:S:1:pos:R:3 pbc="F F F"
H        0.00000000       0.00000000       0.00000000
H        0.19410905      -0.89379078       0.33394706
H       -0.76364583      -0.19475858      -0.65744817
H       -0.41177201      -1.10635126      -0.34358910
H       -0.82751262       0.05067664       0.51060325
H       -1.56289673      -0.14682123      -0.20221415
H       -1.52707374      -1.11489666       0.13671139
H       -0.88056302      -1.26637745       0.84884787
H       -1.80106354      -1.06163120       1.37314272
H       -0.77514464      -0.90498865       0.88112354
H       -1.07443643      -1.08853877       0.43991742
H       -0.56997311      -1.14443433       0.88296175
H       -1.60223114      -2.25396442       1.11125433
H       -1.60223114      -2.25396442       1.11125433
H       -1.60223114      -2.25396442       1.11125433
H       -1.60223114      -2.25396442       1.11125433
H       -2.18384171      -2.10248375       0.34519708
H       -1.60223114      -2.25396442       1.11125433
H       -1.03415453      -2.40544510       1.88740087
H       -0.86444992      -2.23706532       0.47607392
H       -2.29216146      -1.74712539       0.88633549
