6
Properties=species:S:1:pos:R:3 pbc="F F F"
H        0.00000000       0.00000000       0.00000000
H       -0.33764970       0.29845181       0.92208624
H       -0.85472441      -0.08000240       0.18896478
H       -0.17037591       0.63599205       1.70454466
H       -0.04234977      -0.07308787       1.04965854
H       -0.12508698       0.30766323       0.84519202
