14
Properties=species:S:1:pos:R:3 pbc="F F F"
H        0.00000000       0.00000000       0.00000000
H       -0.77018702      -0.01689900       0.59547228
H       -1.08443356      -0.65976655      -0.14025480
H       -1.28532529      -0.83055979       0.73917162
H       -0.61080098      -1.07577133      -0.81178290
H       -0.53762484      -2.16662931      -0.51998699
H       -0.74358624      -0.40936196      -0.47703591
H       -0.54354024      -1.15424967      -0.35153461
H        0.32805291      -0.92740691       0.29261166
H       -0.88674116      -1.29075336      -1.14563060
H       -0.45318931      -0.81548768       0.49122480
H       -0.99062049      -1.29075336      -1.07506096
H       -1.14452660      -1.55076623      -1.16536307
H        0.02866611      -1.21821237      -0.40832496
