12
Properties=species:S:1:pos:R:3 pbc="F F F"
H        0.00000000       0.00000000       0.00000000
H       -0.90169489       0.25064358      -0.26867270
H        0.80835700       0.31530851      -0.44181505
H       -1.16054165      -0.76707673      -0.02094129
H        0.50386912      -0.59628415      -0.08180144
H       -0.31865597      -1.35289764      -0.05790447
H        0.05258664      -0.83246249      -0.92707270
H       -0.06659269       0.18515402      -0.98687828
H       -1.59393048      -0.92899191       0.16868350
H       -0.21543714      -0.80123073       0.67240185
H       -0.76289469      -0.81736267      -0.21244144
H       -0.69670993      -0.78569925       0.31968129
