9
Properties=species:S:1:pos:R:3 pbc="F F F"
H        0.00000000       0.00000000       0.00000000
H       -0.73394406      -0.63587439       0.07106813
H       -1.58204174      -0.75388247      -0.39246762
H        0.09167348      -0.96923625       0.01542819
H       -0.17577921      -1.11252892      -0.85421199
H       -1.11826420       0.01748604      -0.88564610
H       -0.52445674      -0.48149368      -1.47426558
H       -0.77822161      -0.01794559      -0.59446424
H       -1.01241827      -1.07096577      -0.88287538
