12
Properties=species:S:1:pos:R:3 pbc="F F F"
H        0.00000000       0.00000000       0.00000000
H        0.90784711      -0.05341591       0.47569352
H        0.35611472       0.39891118       0.87600005
H       -0.63006419      -0.13510449      -0.58216918
H       -0.19064733       0.29638511       0.23883849
H        0.35527354       0.45758146       0.79042614
H       -0.28015989       0.51080066       0.27855396
H       -0.31058195       0.51080066       0.29030347
H       -0.04121715      -0.90970659      -0.54595202
H       -0.04121715      -0.90970659      -0.54595202
H       -0.04121715      -0.90970659      -0.54595202
H       -0.06753761      -0.92971462      -0.56735653
