10
Properties=species:S:1:pos:R:3 pbc="F F F"
H        0.00000000       0.00000000       0.00000000
H       -0.29363519      -0.58319080       0.72230726
H        0.06181962       0.52595156       0.87913436
H       -0.63699627       0.11800810      -0.72689110
H       -0.59620970      -0.18312836       0.98987758
H       -0.99914634       0.73272264       0.01087397
H       -1.09472978       0.03361489       0.12833911
H       -0.48220420       1.11995697       0.66750044
H       -0.85433221      -0.00885779       0.57645512
H       -0.18688744       0.43824118       0.33050779
