6
Properties=species:S:1:pos:R:3 pbc="F F F"
H        0.00000000       0.00000000       0.00000000
H        0.45279220       0.75366068      -0.41837266
H        0.66302025       0.02184945      -1.02526438
H        0.49159861      -0.46966103      -0.69700080
H        1.24986935       0.14023903      -0.73029286
H        0.71280402       0.49569461       0.01876980
