21
Properties=species:S:1:pos:R:3 pbc="F F F"
H        0.00000000       0.00000000       0.00000000
H        0.21426670       0.05341591       1.00227761
H       -0.26123178       0.24817449       1.89069986
H       -0.67399776       0.95725441       2.41500020
H       -0.71925646       0.37845421      -0.53619349
H       -1.55909228       0.59140229       2.04610491
H       -0.69522160      -0.16442259       0.73128271
H       -1.61032772       0.57450330       1.07391644
H       -1.78331876      -0.33215362       0.76390314
H       -1.38483429       1.55382252       0.86556417
H       -1.03869748      -0.49182254       0.07588512
H       -0.12565660       1.21359169      -0.19809318
H       -2.32759190       2.16709232       0.99038190
H       -0.83507365       0.91513991       0.48086029
H       -0.42950085       1.65786564       0.54932719
H       -1.79750538       2.96170235       1.17923045
H       -2.08534670       2.75028324       1.73150730
H       -0.31351173      -0.09958950      -0.19690409
H       -2.39390850       2.25262237       0.87994826
H       -0.91184050       0.32356092       1.44805479
H       -0.54199761       0.73370743       1.58629179
