8
Properties=species:S:1:pos:R:3 pbc="F F F"
H        0.00000000       0.00000000       0.00000000
H        0.15607943       0.96046287      -0.03480161
H       -0.63241732      -0.70907992      -0.21287318
H       -0.96365905      -0.12588912      -0.91872609
H       -0.40788841       0.62777156      -0.65193880
H       -0.87377596       0.60592210      -0.28277457
H       -0.48481679       0.40879595       0.33023745
H       -1.14535451      -0.09594083      -0.05018197
