21
Properties=species:S:1:pos:R:3 pbc="F F F"
H        0.00000000       0.00000000       0.00000000
H        0.30968034       0.89379078      -0.23086154
H        0.18544012       1.05345976      -1.23703957
H       -0.11786892      -0.15148079      -0.95457917
H       -0.05303163      -0.19475858      -1.00627065
H        0.58279002       0.80029607      -2.26587009
H        0.81414908      -0.13834924      -2.38196874
H        1.74237800      -0.40254110      -2.73113561
H       -0.41515660       0.71134108      -2.48838615
H        0.04734957       0.50917703      -1.20419705
H        0.37248427       0.44349971      -2.88363385
H        0.06210537       0.52750820      -0.36440712
H        1.13149405       0.26821011      -2.89004278
H        0.98480827       0.20735896      -2.68454123
H        0.52819276       0.19090593      -2.43036532
H        0.23600882      -0.12379640      -2.28185225
H        0.78571743       0.30344820      -2.39031625
H        1.03535140       0.36574411      -2.29487634
H        0.91694057       0.33644807      -2.50087738
H        0.97773814       0.01682708      -2.09585333
H        0.23838651      -0.18887216      -2.28109813
