9
Properties=species:S:1:pos:R:3 pbc="F F F"
H        0.00000000       0.00000000       0.00000000
H       -0.51304650      -0.77136850      -0.44169885
H       -0.30261883      -1.70046616      -0.24030733
H        0.32094827      -1.31585240       0.55175555
H        0.49567202      -0.95834106      -0.00434983
H        0.26567119      -1.13722062       0.11783206
H       -0.79698223      -0.49897972       0.25278342
H       -0.47577566      -0.96864074       1.04291356
H       -0.52064860      -1.13343644       0.19145375
