9
Properties=species:S:1:pos:R:3 pbc="F F F"
H        0.00000000       0.00000000       0.00000000
H       -0.72715116       0.63587439       0.12237607
H       -1.13065207      -0.07320553      -0.40908760
H       -0.51817149      -0.49504808      -0.73467648
H       -1.10850000      -0.74395674       0.22173721
H        0.02587779      -0.63587439       0.73692262
H       -0.94380605      -0.55148119       0.76245660
H       -0.14316428      -0.44550493       0.04180032
H       -1.10173023      -0.11153412       0.71768689
