21
Properties=species:S:1:pos:R:3 pbc="F F F"
H        0.00000000       0.00000000       0.00000000
H        0.88292891      -0.28314662      -0.29719594
H        0.91611481      -0.68205780       0.64783978
H        0.05864939      -0.49897972       0.83405060
H        0.31906083       0.18651447       1.47463191
H        1.22081876       0.00343639       1.26857650
H        1.23413920       0.61333644       0.50969213
H        0.46763027       1.19652724       0.36681634
H        0.85800588       1.81239033       1.16208172
H        0.16735119       1.62761939       1.82307851
H        0.90072471       1.18334544       1.48674285
H        0.50761318       0.11435673       0.92350388
H        0.01161110       0.52577603       0.80325323
H        0.59863198       0.15380478       1.37310624
H       -0.41163075       1.41762066       1.28810859
H        0.13132662       0.54174471       0.82065856
H        0.54592282       0.99825251       1.55522084
H        0.59184766       1.10386360       1.53041995
H        0.05878560       1.01175642       0.94384384
H        0.80590671       0.14329264       0.42227882
H       -0.15933257       1.04287386       0.97721934
