9
Properties=species:S:1:pos:R:3 pbc="F F F"
H        0.00000000       0.00000000       0.00000000
H        0.24483983      -0.86484438      -0.37437752
H       -0.01704117       0.33235219      -0.97086328
H        1.27711964      -0.55108738      -0.38343641
H        1.19849420      -0.17263317      -1.27710938
H        0.15877914      -0.56639254      -1.35256159
H        0.97464973       0.59654403      -0.97956598
H        0.97263175       0.36050528      -0.02342281
H        1.07996106      -0.25108403      -1.36064553
