8
Properties=species:S:1:pos:R:3 pbc="F F F"
H        0.00000000       0.00000000       0.00000000
H       -0.06381270       0.34709048       0.90747839
H        0.84462953       0.03178197       1.06036472
H        1.23963547       0.86351299       0.74373448
H        0.89365822      -0.25136465       0.13005024
H        1.25623107       0.46460181      -0.20173812
H        0.24676073       0.81399775      -0.35345995
H        0.21268351       1.14634991       0.61695474
