8
Properties=species:S:1:pos:R:3 pbc="F F F"
H        0.00000000       0.00000000       0.00000000
H       -0.58002573       0.67024595       0.51736289
H        0.13349009       1.33132863       0.56124783
H       -0.27154753       0.29179174       1.35978472
H        0.71263576       0.66108263      -0.05640028
H        0.56276876       0.98423815       1.36331332
H        1.08781600       0.32315552       0.87817818
H        0.33573180      -0.37366122       0.92443508
