8
Properties=species:S:1:pos:R:3 pbc="F F F"
H        0.00000000       0.00000000       0.00000000
H        0.50912565      -0.18477097       0.80914259
H       -0.26772654       0.11368084       1.40976810
H       -0.73868668       0.23168895       0.56577080
H       -1.12493467      -0.66210186       0.56238133
H       -0.27199665      -0.98938280      -0.02152667
H        0.27188221      -1.18302524       0.83211499
H       -0.52557027      -0.88457346       1.40510714
