8
Properties=species:S:1:pos:R:3 pbc="F F F"
H        0.00000000       0.00000000       0.00000000
H       -0.81573808      -0.52769721      -0.06456009
H       -0.35229009       0.55577880       0.71767855
H       -1.07014203       0.14254874      -0.79898012
H       -0.23913157       0.72836959      -0.65912521
H       -0.61919969       1.28459096       0.11514223
H       -1.49071622       0.75863940      -0.01584537
H       -1.21867299       0.02982724       0.55618644
