8
Properties=species:S:1:pos:R:3 pbc="F F F"
H        0.00000000       0.00000000       0.00000000
H       -0.92830116      -0.43148959      -0.07346868
H        0.31911016      -0.75366068      -0.52747053
H        0.44068223      -1.19343710       0.33269101
H        0.15988317      -0.46354809       0.90160102
H       -0.57218349      -1.13211489      -0.62959307
H       -0.42325586      -1.60177588       0.21022832
H       -0.77937353      -0.90115058       0.76635271
