8
Properties=species:S:1:pos:R:3 pbc="F F F"
H        0.00000000       0.00000000       0.00000000
H        0.36038706      -0.22961354      -0.93312520
H       -0.64558697      -0.79439902      -0.07396999
H       -0.27282372      -1.01223755      -0.94669831
H       -0.91986287      -0.37636316      -1.30034363
H       -1.23293066      -0.18160458      -0.34254330
H       -0.27384260       0.40626085      -1.30926001
H       -0.66601419       0.60990006      -0.36401638
