8
Properties=species:S:1:pos:R:3 pbc="F F F"
H        0.00000000       0.00000000       0.00000000
H        0.63848275      -0.52769721      -0.51179713
H       -0.34983543       0.33235219      -0.90580416
H        0.25277337      -0.22924539      -1.41483569
H        0.91982520       0.47983453      -1.39727068
H        0.31742188       1.04143214      -0.91165978
H        1.31684649       0.14748234      -0.51113290
H        0.66758692       0.70326114      -0.04462156
