8
Properties=species:S:1:pos:R:3 pbc="F F F"
H        0.00000000       0.00000000       0.00000000
H        0.68725604      -0.43977645       0.53135377
H        1.07350397       0.45401433       0.52796423
H        0.37350810       0.83246851      -0.03314108
H        0.50102931       0.57840121       1.37065315
H       -0.23483860       0.91075337       0.73711985
H        0.11727726      -0.31538957       1.32668364
H       -0.59079897       0.22961354       0.80719143
