18
Properties=species:S:1:pos:R:3 pbc="F F F"
H        0.00000000       0.00000000       0.00000000
H       -0.33100656      -0.58582085      -0.77496612
H        0.05883178       0.05704671      -1.47358704
H       -0.90586936       0.38939890      -1.58412051
H       -1.27379990      -0.19379190      -0.89667851
H        0.37873161       0.67024595      -0.67871690
H       -0.66439354       1.05964482      -0.84534878
H        0.27304429       0.66073364      -0.72123528
H        0.38858056       1.23569012      -0.47021645
H        0.35967302       1.23569012      -0.39727902
H        0.01514732       1.01138401      -1.66171682
H        0.03367740       1.01750958      -1.63150859
H       -0.19173056       0.05597299       0.21045619
H       -0.03869134      -0.83646441       0.11934394
H       -1.08474040       0.47645405      -0.14278811
H       -1.18503273      -0.11316016      -0.77243215
H       -1.01731205      -1.06118584      -0.50847459
H       -1.00183344      -1.14130116      -0.49854451
