8
Properties=species:S:1:pos:R:3 pbc="F F F"
H        0.00000000       0.00000000       0.00000000
H        0.13252793       0.60990006       0.74734145
H       -0.48079959       0.77136850      -0.47659874
H        0.40182003       1.10372066      -0.88138080
H        0.88841152       0.40690392      -0.30605561
H       -0.34930968       1.35730863       0.23495787
H        0.51683527       1.71843529      -0.06761092
H        1.01640105       1.03294110       0.41050261
