8
Properties=species:S:1:pos:R:3 pbc="F F F"
H        0.00000000       0.00000000       0.00000000
H        0.36925858       0.05341591      -0.95609558
H       -0.21074742      -0.94210368      -0.34835330
H       -0.89478004       0.18477097      -0.33658457
H       -1.15065837      -0.67791182      -0.66472960
H       -0.84003127      -0.46007332      -1.56145597
H        0.09597778      -0.75852513      -1.26457655
H       -0.55287433       0.40260947      -1.22185731
