8
Properties=species:S:1:pos:R:3 pbc="F F F"
H        0.00000000       0.00000000       0.00000000
H        0.63883960       0.60990006      -0.40983751
H        1.05519724      -0.26678932      -0.74358284
H       -0.55436790       0.15148079      -0.78599662
H        0.08124232       0.73428696      -1.26244354
H        0.37982029      -0.81366080      -0.37650183
H        0.49813312      -0.14878121      -1.53340220
H       -0.23589879      -0.70500255      -1.08047962
