5
Properties=species:S:1:pos:R:3 pbc="F F F"
H        0.00000000       0.00000000       0.00000000
H        0.14728610      -1.02954066      -0.28719354
H        0.91593719      -0.19475858      -0.42006195
H        0.78290069      -0.63062948       0.41294068
H        0.23834723      -0.91730648      -0.15150985
