21
Properties=species:S:1:pos:R:3 pbc="F F F"
H        0.00000000       0.00000000       0.00000000
H       -0.32983679       0.96807545      -0.08579928
H        0.34701422      -0.40936196      -0.81244379
H        0.86254823      -1.20397210      -0.58687723
H       -0.21053292       0.98497444      -1.05199909
H       -0.39744925       1.97435725      -1.25076497
H       -0.59890991       0.25316322      -1.56354249
H        0.35104376       1.49577260       0.36807099
H        0.78422338       0.27613223      -1.34817386
H        1.24586153       0.93721485      -0.80235243
H        1.81570542       0.62190634      -0.07852960
H        1.43309212      -0.13322973      -1.94771802
H        2.44710231      -0.10990489      -0.19622087
H        0.82421905       0.11162928       0.39565089
H       -1.09662461      -0.33265764      -0.88352937
H        2.71414185      -0.09209242      -1.18702686
H        2.07183146      -1.00458503       0.13850775
H       -0.82078505       2.35281134      -0.45980340
H        1.23178601       0.18212989       0.56466216
H        2.30975342       0.78459692      -1.53517842
H       -2.11243200      -0.24370264      -0.99991846
