21
Properties=species:S:1:pos:R:3 pbc="F F F"
H        0.00000000       0.00000000       0.00000000
H        0.52691501       0.55577880      -0.60127473
H        0.12530106       0.46682382      -1.54154980
H       -0.87427157      -0.15148079      -0.40095353
H       -1.31463027       0.69731832      -0.58448905
H       -1.38265395      -0.76619536       0.24479979
H       -0.04619533      -0.42904550      -1.66939747
H        0.24236870      -1.18864715      -0.95956415
H       -0.69788247      -0.89058226       0.99908072
H       -0.98724264      -0.47972214      -1.91418886
H       -1.97234392      -0.11775494       0.52786958
H        0.06284857       1.37225127      -0.18734354
H       -1.34224176       0.42693478      -1.91730416
H       -1.70827579       0.86156422       0.37126192
H       -0.65311980       1.40639830      -0.49690735
H        0.00000000       0.05067664       0.97236454
H        0.62850308      -0.66094995      -0.23810947
H        1.30196738      -0.32340971      -0.67015988
H        1.19142890       0.53765047      -0.64754146
H       -0.62791413       1.01012564      -1.60475755
H       -1.98402429       0.47487214      -1.25839972
