21
Properties=species:S:1:pos:R:3 pbc="F F F"
H        0.00000000       0.00000000       0.00000000
H       -0.37664786      -0.36585209      -0.88182342
H       -0.50186598       0.83173102       0.06644528
H       -0.83661872       0.84863001       0.98062032
H       -0.27490327      -0.55577880       0.75073230
H       -1.19853354      -0.18992671       1.00838172
H       -0.39143720       0.05401987       1.32481360
H       -1.20830154       0.98321182      -0.58628988
H       -1.50582409      -0.65958774       0.21273613
H       -2.16914225       0.81535470      -0.12505615
H       -2.59773064      -0.09623796      -0.32161301
H       -0.92907631       0.36595914      -1.20944536
H       -0.81654263      -1.19758308      -0.63126993
H       -0.69040847      -0.92377961      -0.35173166
H       -2.37563252      -0.75732058       0.35787439
H       -1.67132449      -0.07907680      -1.13757312
H       -2.00853682       0.76741737       0.78061807
H       -1.12197638       1.26246548       0.92982179
H       -2.43886685       0.44135836      -0.58607221
H       -2.21021676      -1.55193067      -0.17998546
H       -1.25578761      -1.91778278      -0.08756772
