21
Properties=species:S:1:pos:R:3 pbc="F F F"
H        0.00000000       0.00000000       0.00000000
H       -0.13959605      -0.55577880       0.78719991
H        0.68773150      -0.68016571       1.38165832
H        0.49754906      -1.02725625       2.27127600
H        0.92970276       0.18861997       1.56873894
H        1.01378036       0.15966894      -0.00889655
H        0.20714021       0.91116786       1.66440368
H       -0.87660974      -0.27263218       1.35702419
H       -0.50697696      -1.22201478       2.19177461
H       -0.48896888       0.79461014       0.27850491
H       -0.84595299      -0.97137117       1.31408787
H        1.42902541      -0.42352188       0.65104359
H       -0.61936259       0.61271608       1.13417399
H        0.62022626       1.74630535       1.12031507
H        0.20567933       1.60553598       0.12361661
H        0.91137862       1.17404640      -0.48394337
H        0.47796386      -0.29452455       2.82900238
H        0.39059660       0.59926623       2.45274997
H        1.60215092       1.44785357       1.11169803
H        1.05000591       1.09831429       0.24741110
H       -0.33092159      -0.38347954       3.45439434
