21
Properties=species:S:1:pos:R:3 pbc="F F F"
H        0.00000000       0.00000000       0.00000000
H        0.15274149      -0.33235219      -0.95892441
H        0.25764996       0.93864530       0.02494834
H       -0.68398696       0.08701599      -1.49571419
H       -0.88704765      -0.01598554       0.24744456
H        0.90117186       0.13730884      -1.36798596
H       -1.27626646      -0.48564658      -0.51149422
H       -1.98499894       0.09754422      -0.83652914
H       -1.15071714       0.86161810      -1.13486040
H        1.31805456       0.54667079      -0.58908117
H        0.39876881       1.31709957      -0.86100811
H       -0.49803311       1.19397032      -0.41592401
H       -2.01355815       1.03964794      -0.43039015
H       -0.33415169       0.41936818      -2.40151834
H        1.32876837       1.55259383      -0.79237390
H       -1.02097583       1.48696649      -1.79852033
H       -1.79166603       0.29230279      -1.82547569
H       -0.78219569      -0.05709311      -1.97719741
H        0.94609463       0.19958031       0.24112052
H       -0.63450319       1.13987601      -2.62206626
H       -1.15971160       1.02183545       0.13877812
