21
Properties=species:S:1:pos:R:3 pbc="F F F"
H        0.00000000       0.00000000       0.00000000
H        0.75986940       0.40936196      -0.45064643
H        0.36967397       1.18073046      -1.00387526
H        0.01234135       0.83363998      -1.84047699
H        1.08608675      -0.25172067      -1.08673835
H       -0.13556463      -0.17873967      -1.92131639
H       -0.79871213       0.55577880      -0.03506769
H       -1.42252016       0.00000000      -0.53510207
H       -0.43983138       1.46387708      -0.54280055
H       -0.22446434      -0.90665692      -0.27504528
H       -1.04977167      -0.87984765      -0.72215170
H        1.00729454       0.24332741      -1.98230696
H       -0.47997588       1.20421922      -0.60626817
H       -1.34924233       0.49897972      -1.36799490
H        0.46743405      -0.98353189      -0.91416335
H       -0.96048707      -1.00423455      -1.73698187
H       -1.10080647      -0.11092034      -2.08518553
H       -0.00352612      -1.10153997      -1.75816059
H       -0.82135940       1.05718696      -1.93600070
H        0.36632228      -0.31245139      -2.46014094
H        0.66852057       1.18543112      -1.75648260
