21
Properties=species:S:1:pos:R:3 pbc="F F F"
H        0.00000000       0.00000000       0.00000000
H       -0.04588301       0.64844042       0.65250099
H       -0.77488208      -0.11800810      -0.57766145
H       -1.33131957       0.62940043      -0.14745018
H       -2.28397989       0.26354834      -0.25660399
H        0.09445190      -0.96807545       0.32746395
H       -2.13316107      -0.64310861      -0.57798821
H       -0.33036792       0.18489233       1.52285457
H       -0.89049208       1.17439198       0.40083781
H       -1.27670670       0.20179133       1.75136817
H        0.09445190      -0.84368855       1.34621406
H       -0.78778630      -1.06152701       1.69587529
H       -1.22928238      -1.53118801       0.96610785
H       -1.76773441       0.58024555       1.00055194
H        0.14897239       0.17392796       1.46790195
H       -1.33483934      -0.37603283       2.11883092
H       -1.35981202       0.90655065       1.14671826
H       -1.08558476      -0.84785479      -0.73543727
H       -2.09234595      -1.09141159       0.86721981
H       -2.35544062       0.13916144       0.75963676
H       -0.72300172      -1.52429676       0.05230707
