21
Properties=species:S:1:pos:R:3 pbc="F F F"
H        0.00000000       0.00000000       0.00000000
H        0.59380746      -0.49897972      -0.58861941
H        0.40188801      -0.26936617      -1.57033646
H        0.27926147      -0.19475858       0.96819729
H       -0.42912245       0.31645468      -1.43048143
H        1.14702415       0.42745057      -1.68232930
H       -0.79310381       0.19844657      -0.53513092
H       -0.98217034       1.10510349      -0.23465136
H       -0.09548238       1.17410302      -1.46870911
H        0.68286240       1.32213068      -1.87578559
H        1.83677697       0.44526303      -0.92256123
H        1.13212156       1.87790942      -1.21447110
H        1.83677697       1.38736677      -0.51541936
H       -0.63942480       0.08838804       1.12280774
H       -0.28995323       1.72988176      -0.69324028
H        1.38514578       1.33395088       0.40463501
H       -1.23087192       0.10620050       0.28423935
H       -0.50308502       0.99113953       1.24441803
H        0.60805708       1.88955069      -0.22270104
H        0.46759135       1.32349169       1.26997817
H        0.98109847       0.61616731       1.08631301
