21
Properties=species:S:1:pos:R:3 pbc="F F F"
H        0.00000000       0.00000000       0.00000000
H        0.13252793       0.60990006       0.74734145
H       -0.52155960       0.55622131      -0.68696243
H       -1.47504866       0.78583485      -0.38453883
H       -1.87708771       0.14296728       0.30713290
H       -0.69031942      -0.69681674       0.30204207
H       -1.68248308       1.71324182       0.00303209
H       -0.90695012       2.24093914      -0.25801414
H       -0.10811946       1.43606901      -0.63222438
H       -0.48881143       1.55544496      -0.80875784
H       -1.05026424      -0.35601243       0.18286264
H       -0.49494192       2.43569779       0.66157395
H       -0.48780978       1.31897998       0.99320257
H       -1.76520383       0.69874609       1.09874701
H       -1.79034340       1.73105431       1.02350879
H        0.45565602       2.06984568       0.78742981
H       -0.89539468       2.07770061       1.40978074
H        0.50413799       1.75453711      -0.13251096
H        0.47907391       1.36076570       1.45430183
H       -1.00864649       0.41559947       1.64235508
H        0.33370534       1.59262192      -0.57380021
