21
Properties=species:S:1:pos:R:3 pbc="F F F"
H        0.00000000       0.00000000       0.00000000
H        0.02715597      -1.02162731       0.09414954
H        0.27657518       0.25064358      -0.89930242
H       -0.31385198      -1.28581917       1.02540684
H        0.40807104      -0.61420083      -1.32686985
H       -0.55208373      -0.42097479       1.40402365
H       -0.90184945       0.34709048       0.11940166
H       -1.19467115      -0.60574579       2.11183858
H       -0.85577679       0.24010783       0.75687504
H       -0.20302302      -0.73220891      -2.07566833
H       -1.86300623       0.08043890       0.64146882
H       -0.72794044      -1.40008152      -0.39027053
H        0.23007405      -1.34601212      -0.70975530
H       -1.37387419      -0.79018146       0.00829241
H       -0.87075126      -0.14174104       0.42629978
H       -0.72272301       0.20835221      -2.17253947
H       -1.92197156      -0.26820555       1.77828813
H       -2.28595543      -0.62417865      -0.05764163
H        1.62339306       0.52530313      -1.35264444
H       -1.80446231       0.09764653       0.82662237
H       -1.79610884      -0.60574579       0.98811072
