21
Properties=species:S:1:pos:R:3 pbc="F F F"
H        0.00000000       0.00000000       0.00000000
H        0.73469222      -0.22961354      -0.67884368
H        0.25423062      -0.52769721       0.77779388
H        0.05500522       0.94706190       0.21933794
H        1.56538773      -0.41438451      -0.20569935
H        0.79048514      -1.30229926       0.53185987
H        0.83690822       0.56478548      -1.32056475
H        0.63918841      -1.45378006      -0.41799468
H       -0.32059973      -1.18958819      -0.66766101
H        1.29653502      -0.89800125      -0.87303990
H        1.23908699       0.27110967       0.40396151
H        0.45206684       0.43590540       0.07594219
H        0.80472922       1.47279859       0.31859881
H        1.65906680       0.50820494       1.18865299
H        1.66491079       0.94684702       0.12680092
H        1.90439236       0.98930585      -0.65188920
H        1.58152533       0.06189895      -0.95021313
H       -0.75851631      -0.89132339       0.08573472
H       -0.44644508      -0.54672062      -1.45772946
H        0.44135913      -0.39523983      -1.82775402
H        1.66674995      -0.95520878       0.77629638
