21
Properties=species:S:1:pos:R:3 pbc="F F F"
H        0.00000000       0.00000000       0.00000000
H        0.47219095      -0.55577880       0.64514065
H        0.23822978      -0.40429801       1.57808042
H       -0.01550445      -0.40936196      -0.88331378
H        0.57724392      -1.22583437      -0.69530833
H        0.32811463      -1.91132855      -1.34036112
H       -0.43928251       0.25678462       1.35002816
H       -0.93583524      -0.72467047      -0.92372119
H        0.61079389      -1.41060531       0.26009470
H       -0.30659252      -1.35840511      -2.01530552
H       -1.14358568      -0.20676348       1.93518114
H       -0.73983926       0.34573960       0.37274796
H       -1.79849625      -0.39153445       1.23875260
H       -0.12217450      -1.40897179       1.73577154
H       -1.51410079      -0.29712796       0.17134202
H       -0.75892401      -1.02323592       2.42378330
H       -2.03639984      -1.38978875       1.25338483
H       -0.26621646      -0.40406775      -1.82643795
H       -1.27450240      -1.23566782      -0.38548446
H       -0.10421616      -1.88125420       0.40640032
H       -1.50697112      -0.12734258       0.29083931
