21
Properties=species:S:1:pos:R:3 pbc="F F F"
H        0.00000000       0.00000000       0.00000000
H       -0.61304885      -0.15966894      -0.80746567
H       -0.30993089       0.74740851       0.63138521
H        0.00089449      -0.49202114      -1.55975533
H       -1.09404898       1.03055513       0.12834674
H        0.89940464      -0.37401304      -1.20364499
H       -1.21304345       0.69820297      -0.83534735
H       -0.77118194       1.95796204      -0.16997716
H        0.50658453       1.36212301       0.53783071
H       -0.10726069       0.36562127      -2.11299658
H       -0.78734386       1.97394753      -1.09074914
H        0.86747849      -0.02692255      -0.29448617
H        0.17131239       2.11763096       0.20356554
H        0.17817628       2.09833431      -1.41574550
H        0.72568029       2.26911163      -0.58243108
H       -1.10503948       1.10910320      -1.40566897
H        1.30249679       0.96321183       0.02722573
H       -0.32125956       0.67761362      -1.90849066
H        1.18801725       0.89150810      -0.25204796
H        1.32817698       0.43964776      -1.52328753
H        0.43877673       1.28467345      -1.88276207
