21
Properties=species:S:1:pos:R:3 pbc="F F F"
H        0.00000000       0.00000000       0.00000000
H        0.17388797      -0.66108263       0.69339287
H       -0.04571859      -0.43977645      -0.86750644
H       -0.08418640      -1.57267523       0.29877877
H       -0.61113894      -1.46104598      -0.44834757
H        0.75303268      -2.15849614       0.20285213
H        0.59534198      -1.17158771      -0.82807791
H        1.40072572      -0.90739584      -0.24938673
H        1.60573697       0.09085846      -0.37097025
H       -1.13852799      -0.64738518      -0.35959050
H        1.58922482       0.34150204      -1.31169653
H        2.09879684      -0.24431881      -1.98287010
H        0.59452552      -2.35325480      -0.79227018
H        1.19527197      -0.67889506       0.79229391
H        0.72413015       0.72254789      -0.08296918
H        1.40786695      -1.95434356      -1.27462864
H        1.89116585      -1.42664635      -0.61431146
H        0.94164497      -1.31846917      -1.84590936
H        2.96486139      -0.52746546      -1.63961911
H       -0.96898109      -0.31503299       0.59650564
H        1.52975595      -0.99797952      -2.22003865
