21
Properties=species:S:1:pos:R:3 pbc="F F F"
H        0.00000000       0.00000000       0.00000000
H        0.15607943       0.96046287      -0.03480161
H        0.65833944      -0.43977645      -0.56678629
H        0.89888072       0.08792076      -1.34892201
H        0.13888335       0.58690047      -1.69746780
H        1.72797549       0.55758178      -1.14871931
H        1.05257297       1.13524628       0.08389103
H        1.53488433       0.55205548       0.69652891
H        2.11196613       0.25931698      -0.36646152
H        1.54226255      -0.55715543      -0.11719362
H       -0.07738072       1.33891702      -0.90101731
H        1.47769690       1.41839290      -0.74505919
H        0.76779252       1.73782825      -1.32513535
H       -0.48032969       0.27159196      -1.01539993
H        2.08728242       1.00672555       0.33645749
H        0.58832884       1.49849319      -1.55491459
H        0.59891939      -0.16785710       0.88161600
H        1.22728324      -0.39748651       0.84645444
H       -0.82237971       1.00340319      -0.47178692
H       -0.06594658      -0.48206872      -0.55895376
H        0.53631741       0.69698727       1.32454491
