21
Properties=species:S:1:pos:R:3 pbc="F F F"
H        0.00000000       0.00000000       0.00000000
H        0.42017129      -0.49897972       0.72286665
H       -0.15699835      -0.52769721      -0.80308664
H       -0.87465358      -0.36290148      -1.26348686
H        0.70394278      -1.31545210       0.16953993
H       -1.26523829       0.30734447      -0.59152126
H       -1.43055010      -1.22054386      -1.16993213
H        1.43084276      -1.03230548      -0.41313094
H       -0.87206101       0.37845421       0.21057765
H       -1.30550444      -0.17776710       0.95627773
H       -2.31149387      -1.06087494      -0.66816771
H       -2.07460570      -0.10201749      -0.23739105
H       -0.87067103      -1.04261148       1.06127763
H       -0.08333087      -1.61390388      -0.41735917
H       -1.25564015      -1.79001999       0.47263241
H       -0.85392654      -1.94309175      -0.72411418
H       -1.27046633      -2.06747866       0.20558816
H       -2.33707309      -1.78342283       0.06025118
H       -2.14520955      -0.52485758       0.60630000
H       -0.43111590      -0.72859323       1.24813962
H        1.41140580      -0.00789833      -0.35366559
