21
Properties=species:S:1:pos:R:3 pbc="F F F"
H        0.00000000       0.00000000       0.00000000
H        0.45934626      -0.55622131       0.73002923
H       -0.39868912       0.83756196       0.43915913
H        0.38384387       1.24692392       0.84919059
H        0.68760806       0.26784137      -0.55117512
H        0.06416750      -0.43821320       1.61205459
H       -0.76070803       0.08773836       1.30176568
H        1.39844286      -0.30557773       0.78778851
H       -0.80545926       0.73231149       1.19916928
H        1.22938931       0.77726293       0.96113789
H        0.53808820       1.27376437      -0.68932903
H        1.56385851       0.48903242       0.24992865
H        1.60910177      -0.11081915       1.77318978
H       -0.90380788      -0.25935212       0.40337181
H        1.28678858       0.24956572       1.77741098
H        0.94942468       0.56430203      -0.35913676
H       -0.41234684       1.00957251      -0.97252452
H       -0.40930414       1.22735953       2.00620842
H       -0.38787001      -0.06022954      -0.83449662
H        0.71948153       0.96377730      -0.01985264
H       -1.34054148       0.66805482       0.35333180
