21
Properties=species:S:1:pos:R:3 pbc="F F F"
H        0.00000000       0.00000000       0.00000000
H        0.42330277      -0.73181123      -0.48304045
H        0.23940882      -1.54547203       0.01915479
H        0.12201956      -0.78522712      -1.46268284
H       -0.39996752      -1.59888792      -1.57907236
H       -0.56213737       0.46966103      -0.64146781
H       -0.42333582      -0.37845421       0.79096156
H       -0.57914019      -0.03781861      -1.51817489
H       -0.45985103      -1.34769046       0.70547068
H       -1.46391368       0.38526782      -0.28406298
H       -1.39496636      -1.74660158       0.56492430
H       -1.52738297      -0.40367070      -1.66069436
H       -2.02384853      -0.95220256       0.40133539
H       -2.07147360      -0.08836219      -0.91731906
H       -2.39839196      -0.92009318      -0.53078467
H       -1.44274998      -0.11464059       0.52023995
H       -0.30593792      -2.10169339      -0.64908069
H       -1.41074419      -2.24164963      -0.33396512
H       -2.02537751      -1.69469523      -0.98785436
H       -1.49441671      -1.37938666      -1.74066377
H       -0.56173009      -2.19371223      -0.68782246
