21
Properties=species:S:1:pos:R:3 pbc="F F F"
H        0.00000000       0.00000000       0.00000000
H       -0.47549847       0.19475858       0.88842231
H        0.72077233       0.72254789      -0.10833093
H       -0.64412612       0.12438690      -0.78927392
H        0.10637531       0.77794939       1.40743327
H        0.32255614       1.59923720       0.24686408
H       -0.18555453       0.74024993      -1.54726601
H        1.02132916       0.81150287      -1.08561110
H        0.63040864      -0.02605909      -1.53169954
H       -0.64255947       1.61613619       0.37464195
H       -0.61286420       1.66765690      -1.44408298
H       -1.35421252       1.64984441      -0.73456949
H        0.36221176       2.29605389      -0.50559705
H       -0.46332833       1.59442186       1.65670121
H        0.22836956      -0.66892666      -0.84002781
H       -1.12811399       0.77169102       0.58912337
H        0.83867121       0.75806236      -1.48427081
H        0.05435416       2.36902404       1.37375700
H       -1.14689720       2.35892439      -0.10030848
H        0.84050488       1.02859294       0.81896716
H       -1.21771073       0.56942284      -0.31272516
