21
Properties=species:S:1:pos:R:3 pbc="F F F"
H        0.00000000       0.00000000       0.00000000
H       -0.30820453      -0.91843063       0.09775501
H        0.91605562      -0.05341591      -0.45968771
H       -0.62086636       0.29845181      -0.76077282
H        0.90237176       0.52977490      -1.23927879
H        0.98341787      -0.99206120      -0.70962423
H        0.10237432       1.17264247      -1.24629915
H        0.36479074      -1.47465193      -0.44170684
H       -1.24815083      -0.36263081      -1.10362113
H       -0.14401972       0.61376035      -1.54897261
H        1.10186017      -1.11006927      -1.66884601
H        0.27698463      -1.63602090      -1.97913492
H       -1.16878796      -1.00738561      -0.45433849
H       -0.32889080      -1.08024216      -2.50075340
H        0.03416733       1.22331905      -0.27632976
H       -1.18084931      -0.92876136      -2.05434418
H        0.13320303       0.28121537       0.11858341
H       -0.00426015      -1.91442835      -1.22812843
H       -0.80973172       1.11168981      -0.62805545
H        0.13463655      -0.16864949      -2.58715415
H        0.99590904      -0.16796559      -2.06196022
