21
Properties=species:S:1:pos:R:3 pbc="F F F"
H        0.00000000       0.00000000       0.00000000
H       -0.51304650      -0.77136850      -0.44169885
H       -0.33338243      -1.62016761       0.00025347
H        0.71907407      -1.82491386      -0.12033460
H        0.24331933      -0.22961354       0.97025621
H       -0.50275588      -1.53577435       0.95537198
H        0.74843037       0.46966103      -0.40906158
H       -0.23039517      -1.04327440       1.21847308
H        0.48116079      -1.54225409       1.65752697
H       -0.16272423      -0.82204515      -1.34876394
H        0.15960371      -1.74047577      -1.37427402
H        0.58033168      -0.12522840      -1.22371125
H        1.27746463      -0.89938653       1.73463333
H       -1.14960289      -0.88733393       0.85815185
H        1.11200964      -1.03051484      -0.63788235
H        1.44202209      -0.68144971      -1.26154399
H        0.98474097      -0.00559574       1.48261774
H        1.45244968       0.04782017       0.57063133
H        1.11074948      -1.58899498      -1.51722968
H        1.50585961       0.23256576       0.05829766
H        1.02117383      -1.87559044       0.80391026
