21
Properties=species:S:1:pos:R:3 pbc="F F F"
H        0.00000000       0.00000000       0.00000000
H       -0.43620220       0.58582085      -0.72101700
H       -1.40170634       0.67021406      -0.62752682
H       -1.64654255       0.26085210       0.22131884
H       -0.79633152      -0.49504808       0.41726169
H       -1.86204517      -0.00562108      -1.33141768
H       -1.53643417      -0.68980664      -0.26658121
H       -0.23637831       0.17645890      -1.58157158
H       -2.51679301      -0.70243782      -0.95848918
H       -2.19168162      -1.59622860      -1.16705930
H        0.59118068      -0.63587439      -0.44071537
H       -0.98235375       0.49794737       0.81375194
H        0.18960872      -1.45234680       0.03408635
H       -2.55071211      -0.58442974       0.00742203
H       -0.59139156       1.24960554       0.45250922
H        0.09163490      -2.00812554      -0.75936937
H        0.30706987      -0.51786631      -1.36452055
H       -1.09968138       1.54805732      -0.38766444
H       -2.84781361       0.30936104       0.25426146
H       -1.88282537      -2.01559687      -0.22214365
H       -0.92467988      -2.13360500      -0.09528852
