21
Properties=species:S:1:pos:R:3 pbc="F F F"
H        0.00000000       0.00000000       0.00000000
H       -0.81573808      -0.52769721      -0.06456009
H       -0.09677097       0.68549418       0.68468529
H       -1.45436347       0.05812365      -0.61437404
H       -0.94131690       0.82949215      -1.05607283
H       -0.44496831       0.46364006      -1.87650824
H       -0.70131916      -0.49202523      -2.14911032
H       -2.29496169       0.27596214      -0.17391750
H       -1.23861885      -0.83911574      -1.41501343
H       -0.72009075       0.49073559       1.47643363
H       -0.21865141       1.05910563      -0.36443996
H       -0.34228632       0.64974368       0.51031607
H       -1.47180796      -0.18509954       1.09921312
H       -1.34008408      -0.27861634       0.03242791
H        0.58333194       0.44491416      -1.55035627
H        0.86247414      -0.48418355      -1.63353074
H       -2.35029101       1.09510291      -0.45694059
H       -0.87532616      -1.73379588      -1.06732118
H        0.78632802       0.77726638      -0.60079920
H       -2.58648610       1.42745507       0.48490745
H        1.44745612       0.16140336      -0.01109612
