21
Properties=species:S:1:pos:R:3 pbc="F F F"
H        0.00000000       0.00000000       0.00000000
H       -0.12270200      -0.91159266      -0.45526573
H       -0.80794179       0.61471456      -0.15059879
H        0.72409761      -1.19473934      -0.84362018
H       -1.29138219       0.05893576      -0.78735316
H       -2.18074632       0.43738997      -0.66960448
H       -1.29816020      -0.89540160      -0.59433705
H       -0.66967773      -0.69375420      -1.23078156
H        0.00000000      -0.24138860       1.05159819
H       -0.23169391      -1.23964286       1.10754561
H       -0.40623426      -1.58673334       0.21472716
H       -1.32146358      -1.90204191       0.10986210
H       -1.67946327      -1.31622100      -0.65301013
H       -2.37262607      -0.51694739      -0.69158965
H        0.08454078      -0.94760567      -0.50850528
H       -0.78114235       0.16479573       0.34178069
H       -1.82855248      -1.29065514      -0.24116792
H       -1.10010314      -0.79986644       1.13041282
H        0.01888498       0.37175047       1.58938646
H       -1.56729889      -0.04620576       0.72818834
H       -0.43850437      -0.41398668       2.17036796
