21
Properties=species:S:1:pos:R:3 pbc="F F F"
H        0.00000000       0.00000000       0.00000000
H        0.90784711      -0.05341591       0.47569352
H        0.19060609       0.58582085      -0.82085752
H        0.75120169       0.32503831       1.35903692
H        1.21314132       1.23663092       1.45355916
H        1.11150420       0.90112936      -0.79660815
H        1.56573963       0.43146834      -0.07470131
H        1.15582180       1.86159229      -0.64295954
H        1.89763784       1.17887688       0.54541808
H        1.59984863       2.05635095       0.26160288
H       -0.17864674       0.60818493       1.41622722
H        0.57148749       1.96844220       1.42538714
H        1.77479506       1.21881843       0.59475082
H        2.21680880       1.61657453      -0.34996700
H        1.12389648       1.01621389      -0.86651862
H        0.16454872       1.66438723      -0.83280778
H        1.22920489       2.00118828      -0.14788315
H        1.96424460       0.74931109       0.85148728
H        1.62129974       0.79159498       0.82945597
H        1.18077552       1.44871747      -0.09979475
H        1.90372658       0.85201716       0.71919453
