21
Properties=species:S:1:pos:R:3 pbc="F F F"
H        0.00000000       0.00000000       0.00000000
H        0.69739223       0.29845181      -0.69129914
H        0.27729565       1.02099967      -1.28692245
H        0.94937325      -0.53911018      -1.22825289
H       -0.95501620       0.19475858      -0.32146075
H       -0.97224951       0.49321038      -1.30327201
H       -0.50953299       1.41991091      -0.76242793
H       -0.03233856       0.22901851      -1.61964822
H        0.71151638      -0.29772156      -2.25259805
H       -1.53300011      -0.57984352      -0.20319350
H        0.38968578       0.62070906      -2.22143507
H       -1.17594719       1.02767789      -1.15764999
H       -0.59810925       0.83409005       0.07560068
H        0.22756582      -1.29871178      -0.97110212
H       -0.94164556      -0.76461446       0.54795253
H       -0.20343590      -0.06779772       0.69900519
H       -0.86925423       0.69180393       1.07823920
H       -0.11651206      -0.94395995      -2.49932075
H       -1.94652212      -0.93784070      -0.94425720
H       -0.68697882      -1.49734616       0.05137724
H       -2.04293537       0.90329099      -0.62268907
