21
Properties=species:S:1:pos:R:3 pbc="F F F"
H        0.00000000       0.00000000       0.00000000
H       -0.47398776      -0.23709527       0.75329894
H       -1.03282523       0.62054718       0.82728702
H        0.07308012      -0.22019626       1.55858898
H       -0.65995717       1.32516479       0.10023081
H       -0.19050252       2.11956382       0.54952621
H        0.81463850       2.03060889       0.36216968
H        0.92501372      -0.29845181       0.32954517
H        1.31757331       1.86275184       1.30185461
H        0.41957060       0.72190744       1.77238524
H        0.94592148      -0.61910743       1.19480085
H        0.92782927       1.25600672      -0.21682978
H        1.61259758      -0.03328657       1.71024323
H       -0.29209250       2.00155568       1.51067877
H        0.63611615       2.02242088       2.05248499
H        1.07521152       0.52249223       2.30217814
H        2.01574636       0.37607539       0.92414230
H        1.45357871       0.55918998       0.32294607
H       -0.79475588       1.12486625       1.68975735
H        1.94937730       1.36545825       1.18879437
H        0.68567681       1.11082816       2.52138424
