21
Properties=species:S:1:pos:R:3 pbc="F F F"
H        0.00000000       0.00000000       0.00000000
H        0.36038706      -0.22961354      -0.93312520
H       -0.74865252      -0.67024595       0.20883884
H       -0.58598644      -0.95339257       1.12613297
H        0.06893206      -0.29230994       1.41268575
H        0.81895041      -0.81826150       1.87547231
H        1.31695509      -0.31400675      -0.77213955
H        0.70333046      -0.01689900       0.67312819
H        1.46907341      -1.03610003       1.18413496
H        1.50707674      -1.25265205      -0.94780886
H        1.49290216      -0.11924817       0.22004777
H        1.17502856      -0.80648649       0.22802871
H        1.93131042      -1.74770010      -0.15516955
H        0.00795156      -1.15702045      -1.19585991
H        0.66978729      -1.66201401      -1.22964251
H       -0.57951826      -1.50411093      -0.50126046
H        0.20972419      -1.63473392       2.00013232
H       -0.69694763      -1.44484806      -0.37885088
H       -0.36525154      -1.88249028       0.93609494
H        1.25375593      -2.04077387       0.85489929
H        1.31190920      -2.54209900       0.04128951
