10
Properties=species:S:1:pos:R:3 pbc="F F F"
H        0.00000000       0.00000000       0.00000000
H       -0.19310522      -0.77460212      -0.55746114
H       -0.62619561      -0.28314662       0.68975931
H        0.44009966      -1.43568468      -0.22567460
H        0.69469810      -0.55577880       0.39568344
H        0.00909233      -0.77361727       1.05184805
H       -0.90752006      -1.03680730       0.14120394
H       -0.21062201      -1.63044322       0.54371107
H        0.72311568      -0.70387346       0.35088000
H        0.18012804       0.02330256       0.00621109
