10
Properties=species:S:1:pos:R:3 pbc="F F F"
H        0.00000000       0.00000000       0.00000000
H       -0.46163812      -0.66108263       0.54582143
H        0.64258742       0.18477097       0.70781487
H        0.12037840      -1.34657681       0.17243788
H        0.72207403      -1.22218990       0.99451709
H        0.03362298      -0.55194396       1.35525155
H        0.63421386      -0.69681674      -0.40686992
H        0.55126673       0.17060393       0.84213036
H        1.25016046      -0.49037868       0.62895167
H        1.35885000      -0.36446455       0.23948011
