21
Properties=species:S:1:pos:R:3 pbc="F F F"
H        0.00000000       0.00000000       0.00000000
H       -0.21671417       0.94706190      -0.06457304
H       -0.95501620      -0.19475858      -0.32146075
H        0.13596752       1.00321710      -1.08270359
H        0.36014116       0.05615520      -1.05302382
H       -1.19192696       0.75230330      -0.31825176
H       -0.68797672      -0.17694612      -1.31226671
H       -0.77560544       0.85173631      -1.38954127
H       -0.92488754       0.73449087      -1.30905771
H       -0.45630985      -0.02823801      -1.57680488
H        0.26703945      -0.01781246      -0.99080598
H       -1.95010328      -1.13433433       0.29254165
H       -1.97725511      -1.09318757       0.30929515
H       -2.01898170      -1.09318757       0.23603579
H       -1.97103858      -1.13433433       0.25724110
H       -1.97103858      -1.13433433       0.25724110
H       -1.95010328      -1.13433433       0.29254165
H       -1.95010328      -1.13433433       0.29254165
H       -1.95010328      -1.13433433       0.29254165
H       -1.95010328      -1.13433433       0.29254165
H       -1.97103858      -1.13433433       0.25724110
