8
Properties=species:S:1:pos:R:3 pbc="F F F"
H        0.00000000       0.00000000       0.00000000
H        0.15607943       0.96046287      -0.03480161
H        0.75048202      -0.15148079      -0.60157388
H        0.89583719       0.80898207      -0.66823584
H        1.40486300      -0.13458179       0.11923176
H        0.63745880      -0.05018858       0.71255249
H        0.75828731       0.94356388       0.73013037
H        1.46815872       0.82555580       0.07422072
