8
Properties=species:S:1:pos:R:3 pbc="F F F"
H        0.00000000       0.00000000       0.00000000
H        0.02715597      -1.02162731       0.09414954
H        0.25303990      -0.05067664      -0.93886292
H       -0.94538790      -1.03943980      -0.23321110
H       -0.67322296      -0.16868474      -1.21485591
H       -0.92846131      -0.08510244      -0.42560303
H        0.31298885      -1.07230389      -0.83525479
H       -0.60634732      -1.15669715      -1.14470553
