19
Properties=species:S:1:pos:R:3 pbc="F F F"
H        0.00000000       0.00000000       0.00000000
H        0.50421435      -0.31530851      -0.77097952
H        0.63719434      -1.30572534      -0.36414018
H        0.77636164       0.18477097       0.55783796
H        0.13179076      -1.08788681       0.43908736
H        1.00098777      -0.85827327       0.93416119
H        1.54313540      -1.02798510       0.15186223
H        0.82957321      -0.64696002       1.06127906
H       -0.06598588      -0.91159266       0.46687099
H        2.11615086      -1.83200443      -0.50201881
H        2.34535193      -2.41519523      -1.24728131
H        3.26568270      -2.09988666      -1.28768861
H        1.32020068       0.00000000      -0.34341919
H        1.30556464      -0.87984765       0.07337186
H        2.53297043      -3.18656373      -0.59680933
H        3.44097376      -2.83947325      -0.54096240
H        2.40760636      -2.60963130       0.11013526
H        3.01296496      -1.45355022      -0.47840360
H        3.19258618      -2.28369451       0.21895492
