8
Properties=species:S:1:pos:R:3 pbc="F F F"
H        0.00000000       0.00000000       0.00000000
H        0.50912565      -0.18477097       0.80914259
H       -0.26772654       0.11368084       1.40976810
H       -0.73868668       0.23168895       0.56577080
H       -0.38368750       1.13834584       0.56265545
H        0.40637395       0.94210368       0.02499410
H        0.94829363       0.74263597       0.78986084
H        0.15084118       1.04108775       1.36285305
