8
Properties=species:S:1:pos:R:3 pbc="F F F"
H        0.00000000       0.00000000       0.00000000
H        0.73469222      -0.22961354      -0.67884368
H        0.46950066      -0.60990006       0.59636569
H        0.52158946       0.73181123       0.37477690
H        1.20688319      -0.78539234      -0.03370303
H        0.96039349       0.16470206       0.92359149
H        1.27538586       0.56478548      -0.31842104
H        1.68974602      -0.07108891       0.29152176
