8
Properties=species:S:1:pos:R:3 pbc="F F F"
H        0.00000000       0.00000000       0.00000000
H        0.79402828      -0.31375703       0.65969908
H        1.40956783      -0.33065602      -0.09454644
H        0.51380599      -1.28183246       0.46571648
H        0.69037956      -0.11281753      -0.71371967
H       -0.17580986      -0.94948030      -0.21787399
H        1.22884142      -1.29873145      -0.19496471
H        0.53182572      -1.08089292      -0.83899599
