8
Properties=species:S:1:pos:R:3 pbc="F F F"
H        0.00000000       0.00000000       0.00000000
H        0.17388797      -0.66108263       0.69339287
H        0.01254583      -0.66108263      -0.71475405
H        0.08769447      -1.40849113      -0.00465810
H        1.00661349      -1.36055374      -0.04500345
H        1.03305733      -0.66373700       0.70803773
H        0.98604590      -0.64418364      -0.72329712
H        1.01162505       0.07836425       0.00512177
