9
Properties=species:S:1:pos:R:3 pbc="F F F"
H        0.00000000       0.00000000       0.00000000
H        0.97460508       0.08895500       0.30912116
H       -0.31766176       0.08895500       0.97185487
H        0.04161422       0.96046287      -0.15440270
H        0.67983025       0.10676746       1.21272063
H        0.97756326       1.10133469       0.14059094
H       -0.37083697       1.00580013       0.90181613
H        0.57208234       1.09019339       1.12950420
H       -0.25627619       1.05397964       0.87838149
