8
Properties=species:S:1:pos:R:3 pbc="F F F"
H        0.00000000       0.00000000       0.00000000
H        0.75986940       0.40936196      -0.45064643
H        0.07785529       1.07960796      -0.82340765
H       -0.10297629       0.52382916      -1.60216999
H        0.57903779      -0.14641684      -1.22940874
H       -0.66575897       0.61605990      -0.28909981
H       -0.12575935      -0.55577880      -0.78952855
H       -0.77279848       0.08009559      -1.14317393
