8
Properties=species:S:1:pos:R:3 pbc="F F F"
H        0.00000000       0.00000000       0.00000000
H       -0.29363519      -0.58319080       0.72230726
H        0.26181382       0.58582085       0.80099392
H       -0.92089814       0.31530851       0.02424935
H        0.02404362      -0.09967333       1.45031965
H       -0.62819564       0.98555446       0.74426281
H       -1.18130970      -0.37018567       0.66483057
H       -0.92621028       0.26300657       1.40942121
