8
Properties=species:S:1:pos:R:3 pbc="F F F"
H        0.00000000       0.00000000       0.00000000
H       -0.32983679       0.96807545      -0.08579928
H        0.15129681      -0.15148079      -0.94985455
H        1.05314624       0.19560969      -0.83045280
H       -0.21268308       0.78330445      -1.03458571
H        0.67207360       1.13771343      -0.97379887
H        0.91690397       0.21250869       0.13350439
H        0.59743178       1.25122213       0.00398848
