8
Properties=species:S:1:pos:R:3 pbc="F F F"
H        0.00000000       0.00000000       0.00000000
H       -0.39122835      -0.01598554      -0.83368021
H        0.73845631       0.64286757      -0.30777836
H        0.23913565       1.50050998      -0.04614440
H       -0.41765010       0.91159266       0.21884026
H       -0.17444861       1.51740897      -0.92746353
H        0.32938683       0.65976655      -1.18029416
H       -0.80005020       0.92849165      -0.67645049
