8
Properties=species:S:1:pos:R:3 pbc="F F F"
H        0.00000000       0.00000000       0.00000000
H       -0.02481474      -0.91159266      -0.47085762
H        0.86183828      -0.18477097       0.41370928
H        0.85742354      -1.12943113      -0.12119648
H       -0.53001291      -1.40664077       0.27279955
H        0.36591396      -0.61626053       1.20187151
H        0.36149922      -1.56092072       0.66696572
H       -0.53001291      -0.54179639       0.72013056
