8
Properties=species:S:1:pos:R:3 pbc="F F F"
H        0.00000000       0.00000000       0.00000000
H        0.13252793       0.60990006       0.74734145
H       -0.42827132       0.79439902      -0.48871025
H       -0.27766806       1.35062027       0.36056027
H        0.67036664       1.58023381       0.04144958
H        0.93991095       0.26419187      -0.31637624
H        1.07193863       0.76376140       0.51625133
H        0.55441368       1.05880201      -0.72631204
