21
Properties=species:S:1:pos:R:3 pbc="F F F"
H        0.00000000       0.00000000       0.00000000
H       -0.13959605      -0.55577880       0.78719991
H        0.53277433      -0.32616526       1.52782094
H        0.71955901      -0.34306425       0.57236981
H        0.34757459       0.55271095       1.73181987
H        0.75792736       0.58319080       0.18301782
H       -0.52394199       0.02675939       1.60083222
H       -0.79135996       0.22961354       0.61184216
H        1.02619195       0.45133477       1.14528370
H       -0.17203042       0.92909771       0.23504019
H        0.46079713       1.22593689       0.97681636
H       -0.54095852       0.94519001       1.27794445
H        0.44613636      -0.30559281       1.55824065
H       -0.26022473       0.92646408       0.23632789
H       -0.17541212      -0.11162928      -0.89727771
H       -1.24953842      -0.05547409      -0.98228747
H       -0.17456311      -0.14329264      -0.89293492
H        0.27201134       0.41749281       1.18479621
H        0.26300359       0.21783850       0.91183132
H       -0.29806328      -1.78213716       0.81386918
H       -0.29097223      -1.78213716       0.84112912
