12
Properties=species:S:1:pos:R:3 pbc="F F F"
H        0.00000000       0.00000000       0.00000000
H       -0.06381270       0.34709048       0.90747839
H        0.76426762      -0.03136373       0.56234598
H        0.80565065       0.74323839       1.15085244
H        1.34128141       0.72229695       0.34529382
H       -0.04727006       1.26918995       0.92898512
H        0.00705905       1.58294702      -0.10190392
H       -0.53634161       0.74538505       0.13585536
H        0.05393013       0.76928622      -0.63465166
H        0.88823891       0.21783850      -0.33412406
H        0.82468504       1.55233657       0.60098648
H        0.86929119       1.26763844      -0.42624512
