12
Properties=species:S:1:pos:R:3 pbc="F F F"
H        0.00000000       0.00000000       0.00000000
H        0.42017129      -0.49897972       0.72286665
H        0.46928537      -0.81366080      -0.25649232
H        0.23676486      -1.43900919       0.37849706
H       -0.45054224      -0.08895500       0.91783589
H       -0.46650809      -0.65399188      -0.64651835
H       -0.78006381      -1.56339610       0.44103709
H       -0.89480114      -0.07205600       0.05157417
H       -0.29698995      -1.08480060       1.16537929
H       -1.13434708      -0.76949209       0.78135520
H       -1.18053937      -0.94868153      -0.27664617
H       -0.29608607      -1.42211020      -0.43626988
