12
Properties=species:S:1:pos:R:3 pbc="F F F"
H        0.00000000       0.00000000       0.00000000
H       -0.47398776      -0.23709527       0.75329894
H       -0.14134312       0.73098016       0.67912793
H       -1.07325149       0.51656544       0.89800388
H       -1.49640584      -0.25582117       0.40915057
H       -1.76101851       0.63796961       0.12776279
H       -1.49842286      -0.08457828      -0.55215776
H       -0.17641409       0.96807545      -0.29160225
H       -1.17943156       0.88349718      -0.67215097
H       -0.72667587      -0.56944746      -0.18425888
H       -0.88357711       1.23911333       0.19424820
H       -0.50074917       0.17346531      -0.75145257
