21
Properties=species:S:1:pos:R:3 pbc="F F F"
H        0.00000000       0.00000000       0.00000000
H        0.45279220       0.75366068      -0.41837266
H        0.91000301      -0.09513843      -0.55460519
H       -0.52504718       0.66108263      -0.48513520
H       -0.77200770       0.44324413      -1.40144181
H        0.86140227       0.60217988      -1.28909194
H        0.75569272      -0.35215747      -1.45072937
H        0.19179064       0.39525104      -1.87110877
H        0.22583151      -0.73061168      -0.72679538
H       -0.72186315      -0.21783850      -0.68833858
H       -0.06913829       1.07911849      -1.17850864
H       -0.34341925      -0.46834853      -1.59799862
H       -0.25153673      -0.51182640      -1.56613564
H       -1.63943958      -0.70515835      -0.39730561
H       -2.36895084      -0.21783853      -1.02536607
H       -1.89872444      -1.43770933      -1.14581609
H       -2.13547373      -1.18591404      -1.27364445
H       -2.12651777      -0.50098515      -1.92487431
H       -1.73046803       0.30985868      -1.53716326
H       -1.43718314      -1.18647933      -1.97943044
H       -2.53161669       0.06530809      -0.10807192
