12
Properties=species:S:1:pos:R:3 pbc="F F F"
H        0.00000000       0.00000000       0.00000000
H        0.44047090       0.80291802      -0.09821343
H        0.00000000       0.63587439       0.73737687
H        0.12892021      -0.31530851       0.91215187
H        1.45816445       0.71396303       0.00033022
H        0.70850462      -0.72254789       0.17108361
H        0.94315302       1.03253150       0.76660573
H        0.90044379       0.01781246      -0.49214596
H        1.63791168       0.30998361       0.98696637
H        1.58510244      -0.28429127       0.20207000
H        1.12976086      -0.53777695       1.02925825
H        0.73583764       0.32345158       1.40086675
