12
Properties=species:S:1:pos:R:3 pbc="F F F"
H        0.00000000       0.00000000       0.00000000
H        0.88292891      -0.28314662      -0.29719594
H        1.29961395      -0.68205780       0.55166650
H        0.35947934      -0.81366080       0.39596924
H       -0.17010477      -0.20376074       0.93968201
H        1.51732004       0.16674131       0.12716085
H        1.34856009       0.04873321       1.07881999
H        1.02847576       0.88046426       0.68660772
H        0.34847355       0.39812911       1.28345799
H        0.08293289       0.72898346       0.51036036
H        0.68914914       0.68104613      -0.18140680
H        0.63926256      -0.61312270       1.29381227
