13
Properties=species:S:1:pos:R:3 pbc="F F F"
H        0.00000000       0.00000000       0.00000000
H        0.75986940       0.40936196      -0.45064643
H        0.37912494       0.84085155       0.39916202
H        0.09610897       0.10904032       0.97571671
H        1.55685163      -0.08961776      -0.19786295
H        0.96207559      -0.38600776       1.21728051
H        0.60744059      -0.55110091      -0.40229970
H        1.07952654       0.57445514       1.10875773
H        1.39738750       0.78743565       0.28249180
H        0.34844288      -0.77460212       0.47606730
H        1.17728448      -0.86640942       0.32152313
H        1.76301897       0.04548183       0.74227488
H        1.58417988      -0.15348721       0.73927408
