12
Properties=species:S:1:pos:R:3 pbc="F F F"
H        0.00000000       0.00000000       0.00000000
H        0.42330277      -0.73181123      -0.48304045
H       -0.28709984      -1.34171128      -0.75026876
H       -0.43948919      -0.89148015       0.04933137
H       -1.15366316      -0.94215679      -0.61055386
H        0.20389779      -0.64741802      -1.42792153
H       -0.58430302       0.46966103      -0.62134475
H       -0.87289912      -0.78878784      -1.46807241
H       -0.94354451      -0.19142160      -0.00330245
H       -0.44318417       0.09120682      -1.50730121
H       -1.31007886      -0.01741934      -0.95116961
H        0.38738063       0.22927135      -0.92684901
