21
Properties=species:S:1:pos:R:3 pbc="F F F"
H        0.00000000       0.00000000       0.00000000
H        0.19410905      -0.89379078       0.33394706
H       -0.70430321      -0.46354809       0.58515304
H       -1.07007492      -0.03205851      -0.27120656
H        0.39127001      -0.66108263      -0.59827965
H        0.11394976      -1.54223120      -0.31523496
H       -0.15521659      -1.07868314      -1.19044733
H       -0.81125939      -1.54834414      -0.64539027
H       -1.03413045      -0.70022893      -1.01060367
H       -1.40884888      -0.97416222      -0.04538214
H       -0.34217089      -0.08547442      -0.99275100
H       -0.97137213      -0.05341591      -0.32696620
H       -0.65162146      -1.43671489       0.25482774
H        0.11390243      -1.47218299      -0.52844638
H       -1.00732219      -0.19570673       1.41266632
H       -2.05750036      -0.40045291       1.55170619
H       -1.76131189       0.47939473       1.25810552
H       -1.17155945      -1.09733081       1.98207617
H       -2.51125813       0.03103667       0.73853678
H       -1.77511334      -0.68132609       1.42440200
H       -1.84436977      -1.62502801       1.51632631
