21
Properties=species:S:1:pos:R:3 pbc="F F F"
H        0.00000000       0.00000000       0.00000000
H       -0.02481474      -0.91159266      -0.47085762
H        0.84788865      -0.43977645      -0.18905686
H        0.69022071      -0.92849165      -1.13153887
H       -0.63246107      -0.22961354      -0.77498031
H        0.73911989       0.55847788      -0.40114540
H        0.52536094      -0.20594376      -1.84151745
H       -0.17681730       0.75323647      -0.82120740
H        1.24961209      -0.04086527      -1.04510128
H       -0.25714836       0.17974842      -1.57474530
H       -0.19328326      -0.78082693      -1.52851820
H        0.62289643       0.69982058      -1.46224463
H        0.00647001       0.05641973      -0.09033388
H        1.28033936      -0.76810527       0.55493534
H        1.33146179      -0.76810527       0.52276826
H        0.39540565      -0.80562854       0.65636331
H       -0.24773741      -1.68127179      -0.01672384
H       -0.24773741      -1.68127179      -0.01672384
H       -0.45556259      -1.26190364       0.95542145
H       -0.48586518      -1.22765446       0.93283069
H        0.30979550      -2.41400337      -0.04120245
