12
Properties=species:S:1:pos:R:3 pbc="F F F"
H        0.00000000       0.00000000       0.00000000
H       -0.29363519      -0.58319080       0.72230726
H        0.00000000       0.26419187       0.99172902
H        0.79586375       0.43977645       0.34822190
H        0.40125686      -1.24427342       0.89010382
H        0.96732259       0.14132464       1.31509948
H        0.89283794      -0.31388423      -0.26059043
H        1.16863632      -0.86459839       1.28484237
H        1.49873316      -0.19609794       0.57115507
H        0.27243048      -0.51975799       1.48289597
H        1.14718473      -1.05950248       0.29218054
H        0.32030815      -0.91554296      -0.02998233
