12
Properties=species:S:1:pos:R:3 pbc="F F F"
H        0.00000000       0.00000000       0.00000000
H       -0.49101692      -0.19475858      -0.87994057
H        0.23154563       0.52778929      -0.78427577
H       -0.96900541      -0.01689900       0.09382921
H       -1.43904662       0.89469367       0.05662867
H        0.21884681       0.94706190      -0.05692787
H       -0.53778332       0.68193078      -1.41149735
H       -0.67737865       1.44210994      -0.12785798
H       -1.19072390       1.17791808      -0.97638798
H       -0.52047896       0.69218093       0.58788455
H       -1.32634354       0.34957859      -0.84489453
H       -0.17951056       1.29062915      -0.95080495
