12
Properties=species:S:1:pos:R:3 pbc="F F F"
H        0.00000000       0.00000000       0.00000000
H        0.36925858       0.05341591      -0.95609558
H        0.23411299      -0.79439902      -0.60617250
H       -0.43758404       0.55577880      -0.66909719
H       -0.45047802       0.14237091      -1.56719530
H       -1.21973705       0.19304755      -0.97244048
H       -1.01312876      -0.71527147      -1.53258944
H       -0.55649757      -0.77750003      -0.03809655
H       -1.37975800      -0.73217046      -0.63072562
H       -0.04189593      -0.73747671      -1.48359108
H       -0.98761177       0.02808160      -0.06323737
H       -0.56356233      -1.35813904      -0.87082267
