12
Properties=species:S:1:pos:R:3 pbc="F F F"
H        0.00000000       0.00000000       0.00000000
H       -0.26684549      -0.92909771       0.11675546
H        0.70233595      -0.59674549       0.17636514
H        0.71907860       0.25205362       0.65314674
H        0.95194572      -0.61455792       1.17170501
H       -0.80402803      -0.25834650       0.44821522
H       -0.54406327      -1.03294861       0.97781014
H       -0.59362406      -0.12135595       1.44670928
H        0.35712266       0.04652470       1.56821001
H        0.09495127      -0.78243858       1.63878930
H        0.32162607      -1.25782812       0.78141946
H       -0.20747051       0.46966103       0.82730603
