12
Properties=species:S:1:pos:R:3 pbc="F F F"
H        0.00000000       0.00000000       0.00000000
H        0.63848275      -0.52769721      -0.51179713
H        0.16083315       0.08895500      -1.00972450
H        0.91397041      -0.15966894       0.43873432
H        1.34037018       0.68913019       0.22476180
H        1.57608414      -0.04166084      -0.26535389
H        0.44102201       0.68913019       0.50135100
H        1.55575585       0.85212994      -0.65108144
H       -0.02142711       0.94210368      -0.40657762
H        0.79878801       1.32500458      -0.27565140
H        0.64521891       0.97651684      -1.10799956
H        1.10874629       0.06492418      -1.19440031
