21
Properties=species:S:1:pos:R:3 pbc="F F F"
H        0.00000000       0.00000000       0.00000000
H        0.88791460       0.34709048      -0.19798161
H        0.73898709      -0.12257054       0.64183980
H        1.33173549       0.69390190       0.82984525
H        0.05069548       0.93291134      -0.29390842
H        0.72431594       0.39545009       1.60139680
H        0.90834588       1.27618814       0.09257115
H        1.35993683       0.57670403       0.68394613
H       -0.25128418       0.01083633       1.34761739
H       -0.47182649       0.62534839       0.48441416
H       -0.32135051      -0.06483203       1.28982568
H        0.78129363      -0.54665363       2.00453210
H        0.80664569      -0.51614261       2.06566453
H       -0.43429688      -0.69681674      -0.61575687
H       -0.74984777      -1.38231087      -1.23105049
H       -0.75675178      -0.37763703      -1.62438250
H       -1.48397040      -0.91876280      -1.77832651
H       -0.96004641      -1.39363348      -0.07598108
H       -0.31456223       1.09258032      -1.23964429
H        0.06323272       0.26084930      -0.90266442
H       -1.58931732      -2.17937064       0.31230035
