12
Properties=species:S:1:pos:R:3 pbc="F F F"
H        0.00000000       0.00000000       0.00000000
H        0.93511528      -0.39891118      -0.14054634
H        1.26483262      -0.76476324       0.75987720
H        0.23081207      -0.86245930       0.44460672
H        0.58254725      -0.65313399       1.36845207
H        0.87511092       0.55542618       0.04303101
H        0.13584687       0.79439902       0.63545233
H        1.06270719       0.84507567       0.92943001
H        0.41457081       0.41594481       1.48818111
H        1.31837678       0.06885433       1.38462508
H       -0.23942406      -0.10028106       0.97018099
H        1.61624706       0.08576515       0.46516445
