12
Properties=species:S:1:pos:R:3 pbc="F F F"
H        0.00000000       0.00000000       0.00000000
H        0.73469222      -0.22961354      -0.67884368
H        0.73779607      -0.60990006       0.17815669
H        0.41813868       0.68549418      -0.55074370
H        1.58063364      -0.21271454      -0.19701558
H        0.41287231       0.02597433       0.84008509
H        0.19278829       0.91159266       0.43029681
H        1.07992411       0.73505425       0.85765010
H        1.06385422       1.19860232      -0.05787641
H        1.77693987       0.51721573       0.21361887
H        1.37056494       0.60094625      -0.68883687
H        1.37964511      -0.21459550       0.71826750
