21
Properties=species:S:1:pos:R:3 pbc="F F F"
H        0.00000000       0.00000000       0.00000000
H        0.87747955       0.49504808      -0.19565487
H        0.83189827      -0.29935095       0.45255524
H        0.19244359      -0.94706190       0.11874415
H       -0.17579973      -0.67024595      -0.75709230
H        0.58381832      -0.65334696      -1.36598945
H        0.53823704      -1.44774604      -0.71777934
H        1.18962610      -1.17667544       0.03982393
H        1.41949916      -0.95179880      -0.85034633
H        1.22942734       0.06920093      -1.02770340
H        0.25299981       0.16031384      -0.94577980
H        1.59099531      -0.16603455      -0.15176997
H        1.17334521      -1.07762718       0.06707029
H        2.06997585      -1.47753549      -1.23611665
H        2.06997585      -1.47753549      -1.23611665
H        1.71239448      -2.48220921      -1.40010858
H        1.77195716      -1.63720441      -2.20514441
H        2.23805523      -2.24511385      -0.68191344
H        1.47619927      -2.81456137      -0.45826054
H        0.79755664      -2.09082174      -2.11079288
H        0.79272121      -1.21194553      -2.38627625
