21
Properties=species:S:1:pos:R:3 pbc="F F F"
H        0.00000000       0.00000000       0.00000000
H        0.68725604      -0.43977645       0.53135377
H        0.65529066       0.52945983       0.61864793
H        0.83324784       0.05920327       1.35461950
H       -0.33640021       0.79365170       0.60994542
H       -0.77581716       0.36216211       1.43095303
H       -0.94248945      -0.07761434       0.57838172
H        0.19708860       0.86181200       1.47475350
H       -0.67470926      -0.59830076       1.30706143
H       -0.01392934       0.07503945       1.90463519
H       -0.20699026      -0.83173102       0.46199510
H        0.28908589      -0.74143296       1.36160803
H       -0.82551730      -0.08439321       0.50937206
H       -1.34458685      -1.12403750       1.65806389
H       -2.02894139      -1.70985842       2.14979196
H       -2.65217066      -2.10876966       1.43861055
H       -1.95171714      -2.66499090       1.94190633
H       -1.31560540      -1.14996767       1.67210054
H        0.14899421      -0.85083693       1.41611695
H       -1.19484377      -2.74938416       1.33520925
H       -2.35415196      -1.94910073       0.46958297
