21
Properties=species:S:1:pos:R:3 pbc="F F F"
H        0.00000000       0.00000000       0.00000000
H       -0.30820453      -0.91843063       0.09775501
H        0.56981146      -0.77136850      -0.36555359
H       -0.33388463      -0.33235219       0.91180432
H        0.95618081       0.04229230       0.00422439
H        0.55006301      -1.56597865       0.19682136
H        1.19950008      -0.18732125       0.97448063
H        1.39233887      -0.88937658       0.14197341
H       -0.01334590      -1.25078285       0.95424253
H        0.48943868      -0.49202114       1.50338554
H        1.01804042      -1.30178678       1.07119179
H        1.36201704      -0.24313819       1.00544536
H        0.43270010       0.29845181       0.88148797
H        1.25010908      -0.41387910       0.99307692
H        1.87535775       0.02630676       0.06075852
H        1.87535775       0.02630676       0.06075852
H        0.07149684      -0.33616191       0.15311249
H        0.34262538      -0.59358209       0.41321623
H        0.34780908      -0.61879033       0.37961027
H        0.30980480      -0.42736873      -0.55226231
H        0.39404345      -0.42736873      -0.63724339
