12
Properties=species:S:1:pos:R:3 pbc="F F F"
H        0.00000000       0.00000000       0.00000000
H        0.85755634      -0.19475858       0.52914101
H        0.42870486      -0.86484438      -0.12773874
H        0.78338712       0.71683407       0.06349996
H        0.22241020       0.66341817      -0.79427361
H        0.87296385      -0.84794539      -0.99400043
H        1.59635699       0.18913686      -0.02964827
H        1.22764611       0.69993508      -0.80276167
H       -0.01359665      -0.35289732      -0.84479654
H        1.60871875      -0.24216861      -0.94610775
H        1.36447692      -0.76812017      -0.09932274
H        0.74834412      -0.01255506      -1.45635962
