12
Properties=species:S:1:pos:R:3 pbc="F F F"
H        0.00000000       0.00000000       0.00000000
H        0.24483983      -0.86484438      -0.37437752
H        0.28583288      -0.05067664      -0.92940432
H        1.08049965      -0.73407865      -1.04422843
H        1.83127713      -0.51624012      -0.46376288
H        0.50813562      -0.74740851       0.48631534
H        0.62977135       0.67187124      -0.28678876
H        1.17181003      -1.17385507      -0.18033028
H        1.50714040      -0.46477515       0.39657539
H        1.61309826       0.36044925       0.02320489
H        0.80078268       0.23191065       0.57913589
H        1.21654177       0.23246998      -0.97026730
