21
Properties=species:S:1:pos:R:3 pbc="F F F"
H        0.00000000       0.00000000       0.00000000
H        0.05739931      -0.52769721       0.81627315
H        0.83721912       0.58582085      -0.09592665
H        0.00591538       1.01237965       0.16845237
H        0.87533909       1.23021817       0.54885966
H        1.46434438       0.42615193       0.70065582
H       -0.52295643       0.29845181       0.83112389
H        0.11191887       0.14254874       1.59159374
H        0.93398845       0.73123848       1.38291025
H       -0.04384977       1.07305396       1.17537570
H        0.95745867      -0.32750875       0.34976649
H        0.94920832      -0.26681322       1.30976009
H       -0.47486442       0.34213370       0.77914470
H       -0.24840012      -0.12529263       2.39581323
H        0.83721912       1.23426127       0.55818558
H        1.28396559       0.82720947      -1.04791212
H        1.25028110       0.82720947      -1.06300402
H        1.25028110       0.82720947      -1.06300402
H        1.08196199       0.48346895       0.50611192
H        1.99401784       0.77005422      -0.26979163
H        1.10293949       0.48346895       0.49715197
