15
Properties=species:S:1:pos:R:3 pbc="F F F"
H        0.00000000       0.00000000       0.00000000
H        0.59380746      -0.49897972      -0.58861941
H        0.30533928       0.02697185      -1.42137682
H       -0.30951908      -0.39891118      -0.89352775
H        1.06394100       0.39282393      -0.83486199
H       -0.54971975       0.58319318      -1.30817008
H        0.39113069       0.92052114      -1.30061185
H       -0.28860009       1.17116475      -0.65006995
H        0.74627924       0.30386895       0.13699287
H        0.67039216       1.11527967      -0.33241457
H       -0.83205259       0.45880628      -0.32932389
H       -0.14201170       0.83726048       0.24397969
H       -0.44322726      -0.31579584      -0.77302134
H        0.55421573       0.88144326      -1.24344957
H        0.07984012       0.74599361       0.29791874
