21
Properties=species:S:1:pos:R:3 pbc="F F F"
H        0.00000000       0.00000000       0.00000000
H        1.00909960       0.15966894       0.09771150
H        0.47134602      -0.48319864       0.69005120
H        1.14364624       0.12670141       1.04232287
H        0.23496968      -0.01353762       1.50956666
H        0.45393920       0.99723089      -0.11112018
H        0.71081817       0.92131156       1.40192747
H        1.15192127       1.03829408       0.57088447
H       -0.45883992      -0.05067664       0.85729736
H        0.25926524       1.42872047       0.79950744
H       -0.47830737       0.81647241       0.39738995
H       -0.30498910       0.83235657       1.28553843
H        0.01639462       0.06982398      -0.06875254
H        0.74217057       1.05654728       1.50511563
H       -0.68678427      -0.10249262       1.95203757
H       -0.68678427      -0.11939161       2.92557526
H       -0.76354045      -1.02989948       2.38487554
H       -0.12617946      -0.93586403       3.19468307
H        0.25271982      -0.00138351       3.15243864
H        0.10112530       0.48225290       2.40081215
H       -0.49860436      -0.10093790       2.89908290
