21
Properties=species:S:1:pos:R:3 pbc="F F F"
H        0.00000000       0.00000000       0.00000000
H        0.87909138       0.39891118       0.34841394
H        0.34179175       0.05182070       1.08251083
H        0.89273185      -0.27133477      -0.42870134
H        0.15652761      -0.93864530      -0.20616746
H       -0.25246868      -0.70903176       0.70669812
H        1.15950370      -1.13340390      -0.10904891
H        0.42151889      -1.40830636       0.60454762
H        0.40112391      -0.75970840       1.42663527
H        1.14187074      -0.06289166       1.28856134
H        0.21375005       0.08895500       0.99986094
H        1.31110656      -1.07595420       0.99377745
H        1.63861036      -0.35880178       0.23520291
H        1.13569450      -1.18758345       0.09649974
H        1.90940821      -0.67411029      -0.64531398
H        2.02529073      -1.07302141      -1.58380485
H        2.06024337      -1.03996241      -1.59226966
H        1.67422140      -0.31611308       0.17007738
H        0.18249737      -0.80863994      -0.25874934
H        0.67795229      -0.45838818       0.56685734
H        0.67225170      -0.16306925       0.07597893
