21
Properties=species:S:1:pos:R:3 pbc="F F F"
H        0.00000000       0.00000000       0.00000000
H        0.58115071      -0.52769721      -0.57607329
H        0.68996227      -1.39254165      -0.14217806
H       -0.29794061      -0.92660838      -0.22765931
H       -0.09456001      -1.42558813       0.58333790
H        0.96395284       0.05067664       0.12762399
H        0.99242646      -1.37564266       0.78318173
H        0.31651109       0.12438690       0.96833491
H        0.31936634      -0.75534219       1.24118233
H        1.15258908      -0.37459281       0.96099782
H       -0.48812306      -0.57951790       0.66195846
H       -0.45775038      -0.51848066       0.76692897
H        1.30645847      -0.81986386       0.04795742
H        1.09709406      -1.41309452       0.96965623
H       -0.72340518       0.67583513      -0.42902106
H       -1.52041912       0.25646695      -1.02318144
H       -1.58768117       0.62231904      -0.06665021
H       -0.44194195       0.71292222      -0.38048258
H       -2.12471724      -0.23858112      -0.35754251
H       -1.76249778      -0.08710033       0.53347450
H       -1.62225831      -0.93589944       0.07747680
