12
Properties=species:S:1:pos:R:3 pbc="F F F"
H        0.00000000       0.00000000       0.00000000
H       -0.04850490       0.68549418       0.68978679
H       -0.08073689       0.31530851      -0.91767269
H       -0.51282257       0.77885664      -0.11036301
H        0.03252423       1.33507800      -0.77859849
H        0.85746628      -0.12438690      -0.55009395
H        0.87312245       1.55291653      -0.33814201
H        0.71768755       0.12971538       0.46148878
H        0.86121070       1.14904225       0.58555365
H        1.36919153       0.67622715      -0.14153290
H        0.05837029       1.52626514       0.30005533
H        0.86890209       0.79423523      -0.96848238
