21
Properties=species:S:1:pos:R:3 pbc="F F F"
H        0.00000000       0.00000000       0.00000000
H        0.21426670       0.05341591       1.00227761
H       -0.66417664       0.31760776       1.46256423
H       -0.30462110       0.80707657       0.66939342
H       -0.13897941      -0.86484438       0.42519379
H       -1.29831409       0.61231798       0.83662724
H       -0.41326404      -0.58245850       1.38948524
H       -0.98768699       0.39447948      -0.06009907
H       -1.61521769      -0.24139491       0.32710859
H       -1.01954436      -0.94831061       0.64658535
H       -0.84581584      -0.61790013      -0.15111427
H        0.14430439      -0.00720197       0.91255790
H       -1.40095103      -0.29481083       1.32938623
H        0.17011696       1.59384918       0.73224711
H        0.20634559       1.90760624       1.76393080
H        1.01943302       1.56051576       1.35591376
H        0.72999638       1.27736914       2.24141645
H        1.13307023       0.61345387       1.55141640
H        0.41964382       0.42868289       2.18776798
H        0.43668506       0.09633070       1.21690464
H       -0.77388614      -0.56107634      -0.15218842
