21
Properties=species:S:1:pos:R:3 pbc="F F F"
H        0.00000000       0.00000000       0.00000000
H        0.47219095      -0.55577880       0.64514065
H        0.41125485      -0.11600235       1.51171112
H       -0.44518146      -0.79461014       0.34419331
H       -0.96160531       0.08207923       0.20985778
H       -1.12874186      -0.47369957       0.99167365
H        0.62419939       0.41169485       0.72161543
H       -0.20922780      -0.87900335       1.28507829
H       -1.04948926       0.58105898       1.04133630
H       -0.57862800      -0.02008229       1.80144739
H       -0.00285202       0.74404705       1.46301448
H       -0.25334120       0.87524295       0.46013984
H       -0.90889311       0.55927610       1.15803885
H        0.60805917       0.40973434       0.78150100
H       -0.26290873      -0.14641684       1.13515306
H       -0.35956004       0.26534289       1.21167183
H       -0.56501293       1.58999765      -0.69626713
H       -0.56501293       1.58999765      -0.69626713
H       -0.56501293       1.58999765      -0.69626713
H       -0.57128048       1.54800057      -0.71952212
H       -0.56501293       1.58999765      -0.69626713
