21
Properties=species:S:1:pos:R:3 pbc="F F F"
H        0.00000000       0.00000000       0.00000000
H        0.97460508       0.08895500       0.30912116
H        0.67386925       0.08895500      -0.76896757
H        0.18492858       0.70907992       0.64114588
H       -0.29411680       0.42130721      -0.84557706
H       -0.59311610       0.83756196      -0.00520486
H        1.06213331       1.00580013       0.31759655
H        1.29559350       0.62734592      -0.54861915
H        0.59970003       1.00054765      -1.23460865
H       -0.21807393       1.45227647      -0.73650044
H        0.09058577       1.58497047       0.15988962
H        0.82424581       1.53893852      -0.53620750
H        0.96639305       1.17560852       0.27584347
H        0.97269565       0.24043579       0.14526284
H       -0.12944250       0.59745061       1.49966061
H       -0.09774514       0.56578732       1.50595832
H       -0.03746238       0.59745061       1.52794862
H       -0.11389793       0.55759913       1.55537629
H        0.22907934       0.49937305      -0.05958962
H        0.84752673       1.75282753      -0.59043801
H        0.09433036       0.87984765      -0.40623978
