12
Properties=species:S:1:pos:R:3 pbc="F F F"
H        0.00000000       0.00000000       0.00000000
H       -0.37664786      -0.36585209      -0.88182342
H       -0.34763053       0.52769721      -0.74077630
H       -1.16308856       0.14924300      -1.11475706
H       -0.56479108       0.75366068       0.24711844
H       -1.23621953       0.87804759      -0.51906395
H       -0.53090549      -0.77521408      -0.01194507
H       -1.48347735       0.47051406       0.40172896
H       -1.28186822      -0.68625909      -0.70582259
H       -1.53438389      -0.46145704       0.23036611
H       -0.72331345       0.00209105       0.65535063
H       -1.86641908       0.13234399      -0.44162881
