21
Properties=species:S:1:pos:R:3 pbc="F F F"
H        0.00000000       0.00000000       0.00000000
H        0.15607943       0.96046287      -0.03480161
H        0.75048202      -0.15148079      -0.60157388
H        0.66465628       0.71336359      -1.04059434
H        1.18644071       1.12272549      -0.32769555
H       -0.25119948       0.79319501      -0.98426467
H       -0.58226711      -0.01598554      -0.71347553
H        0.19801873      -0.23382403      -1.25362480
H        1.58870673       2.43033504      -0.94278878
H        1.39182568       2.41252255      -1.94988585
H        0.72319043       2.83969688      -0.76568651
H        0.78067160       1.65886188      -1.86897123
H        0.19268990       2.24468279      -1.26530302
H        1.45712781       2.45505333      -0.96143907
H        1.43861532       3.01448011      -0.21255380
H        0.20785648       2.31155825      -1.87399793
H        1.45938277       2.47816658      -0.90931588
H        0.08413261       2.44459915      -1.62082255
H        1.66130495       2.37620306      -1.00096989
H        1.52224123       2.45505333      -0.92947656
H       -0.03850198       3.24784231      -0.32945752
