21
Properties=species:S:1:pos:R:3 pbc="F F F"
H        0.00000000       0.00000000       0.00000000
H        0.49089283       0.77460212       0.32722577
H       -0.32484525       1.30229926       0.26266569
H       -0.19909254       1.32011175      -0.75576097
H       -0.95442921       0.36585209       0.09241779
H        0.16667235       0.43977645      -0.85257131
H        1.21660471       0.97934830      -0.44449219
H       -0.97077876       0.64899874      -0.83904427
H        0.52192879       1.64959431      -0.79308879
H       -0.86376941       0.92207336       0.95016050
H        0.54098535       0.39352745      -0.94815505
H        0.61478847       2.05895615       0.08546734
H       -0.56233644       0.90608782       0.07997632
H        0.99858207       3.11498785      -0.90826273
H        1.15928566       4.06932545      -0.80113882
H        1.07407212       2.99853182      -0.98982620
H        1.67005038       3.54918242      -1.27307701
H        0.96347147       3.11498785      -0.92111969
H        1.03322005       3.11498785      -0.89418161
H        0.93851602       3.07738066      -0.96715403
H        0.98660982       3.03854656      -0.98791599
