10
Properties=species:S:1:pos:R:3 pbc="F F F"
H        0.00000000       0.00000000       0.00000000
H        0.17388797      -0.66108263       0.69339287
H        0.01254583      -0.66108263      -0.71475405
H       -0.14707607      -1.40849113       0.06754416
H       -1.11175966      -1.29048300       0.12687701
H       -0.96825647      -0.67576844       0.93610919
H       -0.95978129      -0.61040598      -0.72328663
H       -0.75456113       0.16179353       0.38280272
H       -0.27566743      -0.63281661       0.67829621
H       -1.00116432       0.16419613      -0.13478011
