13
Properties=species:S:1:pos:R:3 pbc="F F F"
H        0.00000000       0.00000000       0.00000000
H       -0.61304885      -0.15966894      -0.80746567
H       -0.59191412       0.72254789       0.42530704
H        0.19483292       0.03508964      -1.40972805
H       -0.77065361       1.00569451      -0.48899108
H       -0.11946952       0.95352030      -1.33383310
H        0.73147881       0.22984822      -0.55684811
H       -1.65682995       0.54214644      -0.71950901
H       -1.00303829       0.84500492      -0.75583243
H       -1.58878481       0.33793414       0.27547890
H       -1.28078771      -0.45667601      -0.19547054
H        0.23429829       1.04350901      -0.35979843
H       -0.49938643       0.01298502       0.14642346
