21
Properties=species:S:1:pos:R:3 pbc="F F F"
H        0.00000000       0.00000000       0.00000000
H       -0.58002573       0.67024595       0.51736289
H        0.13349009       1.33132863       0.56124783
H       -0.27154753       0.29179174       1.35978472
H       -0.13152106       0.49897972      -0.82570112
H        0.83140522       0.75439620       0.72977442
H        0.73165500       0.53655767       1.67352080
H        0.94682187      -0.37503499       1.25396633
H        0.38014245       0.47368026       0.33334506
H        0.64267856       0.84607017      -0.34799400
H        0.00804687      -0.52651578       1.04464400
H        0.83270591       0.05645460       0.32978117
H        0.00804687      -0.50048220       2.54441810
H       -0.72629368      -1.26008391       2.32561088
H        0.11312256      -0.60458517       2.53892136
H        0.06061710      -0.44844636       2.54168844
H       -0.36728737      -1.80985475       2.28447676
H       -0.38645938      -1.82206440       2.28667355
H       -0.36728737      -1.80985475       2.28447676
H       -0.81099975      -1.14207578       1.36282325
H       -0.59711635       1.05190313      -0.02468681
