11
Properties=species:S:1:pos:R:3 pbc="F F F"
H        0.00000000       0.00000000       0.00000000
H       -0.43620220       0.58582085      -0.72101700
H       -1.33797848       0.50142765      -0.36361217
H       -0.92634112      -0.27317446       0.05900729
H        0.10544968       0.69681674       0.74609029
H       -1.21706498       1.14766598       0.49188954
H       -0.41380441       0.56184512       0.74666440
H       -0.14763817       1.34542251      -0.01118368
H       -0.73190123       1.98280346       0.01096460
H       -0.74206555       1.02846611      -0.18190284
H       -0.72910106       0.53775144       0.74283683
