14
Properties=species:S:1:pos:R:3 pbc="F F F"
H        0.00000000       0.00000000       0.00000000
H        0.85755634      -0.19475858       0.52914101
H       -0.30458406      -0.91843063       0.10851098
H       -1.24773049      -0.72367203      -0.24626732
H       -1.27657318      -0.10895747       0.57508403
H        0.35138160      -0.72245580       1.17209029
H       -0.53344738      -0.66778708       1.02112281
H        0.19609118       0.30422115       1.04055476
H       -1.02489948      -1.56794477       0.81595039
H       -1.47688735      -0.90686214       0.26211131
H       -0.43345237      -1.58575726      -0.02261800
H       -0.89192092      -1.33511364      -0.84422940
H       -1.37000537      -1.54117703      -0.08441961
H       -0.55569863      -0.25064358       0.75923496
