11
Properties=species:S:1:pos:R:3 pbc="F F F"
H        0.00000000       0.00000000       0.00000000
H       -0.90169489       0.25064358      -0.26867270
H        0.34122458       0.43977645      -0.79888880
H       -1.16177344      -0.73873925      -0.18618208
H       -0.03379995      -0.39778551      -1.25842154
H       -0.39896613      -1.00293112       0.44757777
H        0.21476322      -1.43442070      -0.25276279
H        0.31419250      -0.50701380      -0.68096149
H       -0.61177897      -1.04065311      -0.70526201
H        0.12498325      -0.18927032       0.55478841
H       -0.47593123      -0.46701050      -0.29720306
