21
Properties=species:S:1:pos:R:3 pbc="F F F"
H        0.00000000       0.00000000       0.00000000
H       -0.77018702      -0.01689900       0.59547228
H       -1.05921221      -0.85446095       0.07751650
H       -0.23243338      -0.65976655       1.18781197
H       -0.13942024      -1.26966667       0.43453151
H        0.65568340      -1.00547481      -0.15820503
H       -0.43429688      -0.69681674      -0.61575687
H        0.63149869      -2.33780265       0.53050208
H        0.71716136      -0.58582085       0.44251260
H        0.07146135      -1.52854776      -0.63796228
H        1.28162169      -2.11996412      -0.16083521
H        1.34894884      -1.92844069       1.04601049
H        0.47738945      -0.31267607       0.61882985
H        1.99733019      -2.64591575       0.35342175
H        2.16171074      -1.80835378       0.92332768
H        1.43438113      -3.09018970       0.93138951
H        2.01985836      -2.52127600       1.48897564
H        0.52749765      -2.74309921       0.85961592
H       -0.23231462      -1.11918581       0.19161826
H        0.28969803      -1.68941689       0.52245772
H        0.46226996      -1.92395842       0.57870889
