12
Properties=species:S:1:pos:R:3 pbc="F F F"
H        0.00000000       0.00000000       0.00000000
H       -0.46163812      -0.66108263       0.54582143
H        0.64258742       0.18477097       0.70781487
H        0.15322796      -1.32216525       0.18117034
H        0.69577622      -1.19777834       1.04343081
H       -0.05369878      -0.64155704       1.47031367
H        0.45563886      -0.69681674      -0.60013628
H        0.47453290       0.12981147       1.04689193
H        1.37152076      -0.58306378       0.57564974
H        0.68542486      -0.62826186       1.10610676
H        0.39495230      -0.77208638       0.26288563
H       -0.06220612      -0.64614010       0.22286403
