11
Properties=species:S:1:pos:R:3 pbc="F F F"
H        0.00000000       0.00000000       0.00000000
H        0.52815789      -0.26419187       0.83939010
H       -0.17020600       0.89379078       0.34674037
H        0.65730673       0.84311414       0.85734349
H        0.86632699       0.26784137      -0.16148183
H        0.44352335       1.32528043      -0.35360020
H        1.13077223       1.30929494       0.25940168
H        1.28993678       0.06177793       0.62999177
H        0.84668636       0.43060035      -0.65415156
H        1.51185989       0.41461486      -0.06868935
H        0.24185956       0.77592862       0.85699886
