10
Properties=species:S:1:pos:R:3 pbc="F F F"
H        0.00000000       0.00000000       0.00000000
H        0.69739223       0.29845181      -0.69129914
H        0.00927508       0.94131935      -1.09939229
H        0.45348728      -0.47291669      -1.32282495
H       -0.75277787      -0.05341591      -0.69555461
H       -0.60396373      -0.88514692      -1.17943347
H       -0.29965863       0.16995084      -1.70178294
H        0.14158279      -0.30040139      -1.69553459
H       -0.37679476       0.85834283      -0.53422898
H        0.11381865      -0.73366612      -0.53919685
