21
Properties=species:S:1:pos:R:3 pbc="F F F"
H        0.00000000       0.00000000       0.00000000
H        0.14728610      -1.02954066      -0.28719354
H        0.89628154       0.33235219      -0.37355778
H        0.39682031      -0.66368854      -1.21304917
H        1.39005971      -0.82335746      -1.00981224
H        0.51963365       0.69820428      -1.25538123
H       -0.40593827       0.36585209      -0.96181226
H        0.66661841      -0.25746101      -1.59950781
H       -0.13282007       0.01859516      -0.45500413
H       -0.42948046      -0.49899229      -1.40852332
H        1.13796020      -1.54688931      -2.29936552
H        0.86980462      -2.42357874      -1.83802819
H        1.83882821      -2.33006191      -1.37286663
H        1.07489741      -1.05184126      -1.40255213
H        0.15824878      -1.92459905      -1.39897418
H        0.94112754      -1.67395544      -0.87711257
H        0.07219112      -1.37903225      -2.30871820
H        1.77180600      -3.72680378      -1.91565609
H        1.48315179      -4.02525568      -2.85423422
H        2.36218357      -4.56436586      -1.85848963
H        3.14596343      -4.13287640      -2.36131144
