21
Properties=species:S:1:pos:R:3 pbc="F F F"
H        0.00000000       0.00000000       0.00000000
H       -0.01035373      -0.77460212      -0.58986890
H       -0.74892592      -0.45929360      -1.14046192
H        0.56218791      -0.33482566      -1.24320924
H       -1.27357578      -1.21295428      -0.81673527
H       -0.01358462       0.49917299      -0.77393770
H        0.37499440       0.41600472      -0.73120254
H       -0.18930161      -0.37033862      -1.99616718
H       -0.35231757      -1.49610090      -0.95519888
H        0.77537823       0.06586021      -0.93356514
H       -0.88376099      -1.29278564      -1.64740324
H        1.04422605       0.01578799      -1.23503923
H       -1.06270862       0.21440691      -1.75252771
H       -1.88026643      -0.46142823      -1.55511105
H       -2.53668928       0.81988710      -1.97622871
H       -1.89503551       1.55169833      -2.00440073
H       -2.31874466       0.93531352      -1.88198912
H       -2.48497105       0.87089962      -1.88561797
H       -0.75716031       1.66802406      -1.30229354
H       -0.75716031       1.66802406      -1.30229354
H       -0.75716031       1.66802406      -1.30229354
