8
Properties=species:S:1:pos:R:3 pbc="F F F"
H        0.00000000       0.00000000       0.00000000
H       -0.96783787       0.05067664       0.09371616
H       -0.05157401      -0.97187352       0.02937531
H       -0.28339770      -1.02528942      -0.96898758
H       -0.19664389      -0.05341591      -1.00588357
H       -1.04964399      -0.84748662       0.23360074
H       -1.26984465      -0.86438560      -0.71470672
H       -1.17697692       0.15724170      -0.74596626
