9
Properties=species:S:1:pos:R:3 pbc="F F F"
H        0.00000000       0.00000000       0.00000000
H       -0.92501378       0.29845181       0.32954502
H       -0.22925681      -0.90665692       0.27106357
H       -0.97737813      -0.59134841       0.80860990
H       -0.81359053      -1.06632590      -0.55741930
H       -1.44279599       0.06883827      -0.52631891
H       -1.46062875      -0.85554028      -0.05741286
H       -0.66182029      -0.16825700      -0.95316851
H       -0.33345658      -0.12438690      -0.96263105
