12
Properties=species:S:1:pos:R:3 pbc="F F F"
H        0.00000000       0.00000000       0.00000000
H       -0.30729049       0.46966103      -0.79564559
H       -1.04441190      -0.16621336      -0.77623552
H       -0.58711469      -0.57557535      -1.53212106
H       -0.63740540      -0.72243464      -0.01578337
H        0.22562796      -0.05629054      -1.49756932
H        0.68545568      -0.58398771      -0.82069778
H        0.04873991      -1.31579900      -0.73639888
H        0.61893660      -0.58582085      -0.57188737
H       -0.35039720      -0.97559834      -1.08068013
H       -0.50340724      -1.01372313      -1.10098672
H       -0.08901131      -0.13282043      -0.34101272
