9
Properties=species:S:1:pos:R:3 pbc="F F F"
H        0.00000000       0.00000000       0.00000000
H       -0.81573808      -0.52769721      -0.06456009
H       -0.35229009       0.55577880       0.71767855
H       -1.23698688       0.30986476      -0.48212832
H       -0.31802052       0.67571688      -0.75594747
H       -0.45761657       1.23149562       0.03125244
H       -1.40319848       0.83258444       0.02295454
H       -1.28345811       0.12428921       0.70950711
H       -1.22942829      -0.62937146       0.09539205
