10
Properties=species:S:1:pos:R:3 pbc="F F F"
H        0.00000000       0.00000000       0.00000000
H        0.02715597      -1.02162731       0.09414954
H        0.47438604      -0.01689900      -0.85013717
H       -0.90559167      -1.00381482      -0.33362198
H       -0.36654443      -0.26754257      -1.27212596
H       -1.14421999      -0.09715790      -0.07077101
H       -0.82210129       0.04793736      -0.41254014
H        0.26595789      -1.04643965      -0.60370052
H       -0.61895663      -1.02954066      -1.00953507
H       -0.41566461      -0.11314344       0.49251345
