21
Properties=species:S:1:pos:R:3 pbc="F F F"
H        0.00000000       0.00000000       0.00000000
H        0.65604281      -0.46966103       0.54505712
H       -0.06164205      -1.02588236       1.02346087
H        0.82282704      -1.10553539      -0.17320997
H       -0.29271770      -0.81366080      -0.44758618
H       -0.82031697      -1.28332186       0.22257674
H       -0.17951763      -2.07772088       0.33042011
H        0.07819988      -1.74843025       0.30813390
H        1.71993053      -1.45262587      -0.02223189
H        1.01533175      -0.99234378       0.81085598
H        2.90866041      -2.03565001      -0.72721732
H        2.87291789      -2.17615771      -0.65240782
H        2.89425778      -2.13011932      -0.66407144
H       -0.07351089      -1.54639244      -0.96080208
H        3.00991321      -1.93837142      -0.61383647
H        2.92534828      -1.98733282      -0.73711413
H       -1.22628355      -0.69019258      -1.39443433
H       -1.67242575      -1.18936563      -2.02698588
H       -2.50819302      -1.34084642      -1.55095291
H       -2.93331695      -1.05769980      -2.37990332
H       -2.20213699      -1.49747622      -2.84898043
