10
Properties=species:S:1:pos:R:3 pbc="F F F"
H        0.00000000       0.00000000       0.00000000
H       -0.78841746      -0.36585209      -0.54577839
H       -0.41290337       0.86484438      -0.17209253
H        0.58931005       0.08895500      -0.83553851
H       -0.14187014       0.52873147      -1.30461550
H       -1.12119603       0.45548242      -0.70011270
H        0.14146453       1.01632524      -0.95808911
H       -0.74634624       1.34520388      -1.15865195
H       -0.43767262      -0.34895310      -1.45393777
H       -0.68608546       0.34330073      -0.89948881
