11
Properties=species:S:1:pos:R:3 pbc="F F F"
H        0.00000000       0.00000000       0.00000000
H       -0.33764970       0.29845181       0.92208624
H       -1.15371943      -0.20052791       0.74012399
H       -0.85424179       1.04586029       0.44476342
H       -0.70530266      -1.03225899       0.97508532
H       -0.58599877      -1.04915798       0.00888556
H       -1.07964444      -0.23549718      -0.19685927
H        0.12820113      -0.53327930       0.90911913
H       -0.46964079       0.33678037      -0.10053343
H        0.29333836      -0.63979602       0.09403211
H       -1.10871387       0.10721499       0.39733031
