9
Properties=species:S:1:pos:R:3 pbc="F F F"
H        0.00000000       0.00000000       0.00000000
H        0.63848275      -0.52769721      -0.51179713
H       -0.34983543       0.33235219      -0.90580416
H        0.04703563      -0.54550964      -1.35036552
H       -0.67782056      -1.12870049      -1.06308019
H       -1.05270493      -0.30352220      -0.68287098
H       -0.23000452      -1.34653902      -0.22637945
H       -0.59411502      -0.59287834       0.27109417
H       -0.00588924      -1.27510571      -0.22985891
