6
Properties=species:S:1:pos:R:3 pbc="F F F"
H        0.00000000       0.00000000       0.00000000
H        0.30968034       0.89379078      -0.23086154
H       -0.24994391       0.98274577      -1.08656693
H        0.18207751      -0.21783850      -0.93137270
H       -0.75048190       0.15148079      -0.60157412
H        0.61750734       0.61389256      -1.18960774
