8
Properties=species:S:1:pos:R:3 pbc="F F F"
H        0.00000000       0.00000000       0.00000000
H        0.19410905      -0.89379078       0.33394706
H       -1.01400745      -0.12438690       0.09818678
H       -0.93841499      -0.68060821      -0.76101488
H        0.24578796      -1.19224262      -0.64665467
H       -0.70328557      -1.09985423       0.35757750
H       -0.62041032      -1.49876547      -0.58440208
H       -0.02907617      -0.31239498      -0.96030843
