9
Properties=species:S:1:pos:R:3 pbc="F F F"
H        0.00000000       0.00000000       0.00000000
H       -0.92830116      -0.43148959      -0.07346868
H        0.31911016      -0.75366068      -0.52747053
H        0.34845293      -1.25264037       0.30812454
H        0.15697776      -0.49504808       0.88521707
H       -0.59187531      -1.06896925      -0.66439021
H       -0.50586474      -1.59666646       0.14936578
H       -0.84229058      -0.95918679       0.74028730
H       -0.76250213      -0.81035662       0.94176966
