11
Properties=species:S:1:pos:R:3 pbc="F F F"
H        0.00000000       0.00000000       0.00000000
H       -0.12270200      -0.91159266      -0.45526573
H       -0.88509452       0.36585209      -0.36889538
H        0.45115292      -0.69375420      -1.21110809
H       -0.91173726      -0.46587893      -0.87443924
H       -0.40752292      -0.15057042      -1.64541876
H        0.73040855       0.26191109      -0.96202183
H       -0.36801982       0.74430633      -1.10201681
H        0.69058532       0.38461375      -0.73436463
H        0.60443050       0.43054929      -0.75557184
H        0.08008552       0.09586591      -1.57852960
