21
Properties=species:S:1:pos:R:3 pbc="F F F"
H        0.00000000       0.00000000       0.00000000
H        0.80713278      -0.08439321       0.53802919
H        1.22742236      -0.64061451      -0.21516299
H       -0.56210726       0.22961354       0.82742786
H       -0.54782742      -0.77630949       1.03050125
H        0.37918040      -0.97907329       0.80209029
H        0.14244287      -1.32616377      -0.07628566
H       -0.68319213      -1.10463834       0.18066925
H        0.13567552      -0.55622131      -0.85178280
H       -0.84550893      -0.68698704      -0.42247576
H       -0.57234174      -0.48330867       0.24435413
H        0.70999479      -1.45708692       0.12975064
H        0.32806355      -0.58719862      -0.70671606
H        2.65677500      -0.56528437      -0.42999244
H        2.94159245      -1.37894511       0.02266198
H        2.17088914      -1.84249318      -0.47177044
H        2.61354303      -1.75809991      -1.33490217
H        3.29608679      -0.64967757      -1.15952587
H        2.08221364      -0.94443911      -1.39578080
H        1.90165722      -0.89361322      -0.84270918
H        3.34372807      -1.63906038      -0.89087021
