10
Properties=species:S:1:pos:R:3 pbc="F F F"
H        0.00000000       0.00000000       0.00000000
H       -0.72715116       0.63587439       0.12237607
H       -1.34832215      -0.02520823       0.47618008
H       -0.54502469      -0.39891118      -0.77274960
H       -0.66691196      -0.68629086       0.69230694
H       -1.07536304       0.51786631      -0.77922440
H       -1.78691888       0.01888660      -0.34017041
H       -0.75382859      -0.95048273      -0.29560608
H       -1.13773346      -0.77551246      -0.36867306
H       -1.01676702      -0.10935843       0.06533945
