11
Properties=species:S:1:pos:R:3 pbc="F F F"
H        0.00000000       0.00000000       0.00000000
H        0.21426670       0.05341591       1.00227761
H       -0.73158455       0.35186774       1.26612568
H       -0.64005196       1.20066690       0.79791331
H        0.54459780       0.79461014      -0.14166437
H       -1.05030954       0.70561886      -0.00204915
H        0.48265356       0.92220157       0.85558826
H       -1.33304143       0.02012467       0.62899864
H       -0.42679727      -0.37878650       0.35897020
H       -0.12208056       0.44142699      -0.35121605
H       -0.50041640       1.34156978       0.70783436
