15
Properties=species:S:1:pos:R:3 pbc="F F F"
H        0.00000000       0.00000000       0.00000000
H       -0.04850490       0.68549418       0.68978679
H       -0.89212191       0.11800810      -0.37182432
H       -0.90754914       1.04541504       0.06749594
H       -1.30114079       0.55809522       0.94597888
H       -0.36727753      -0.81647241       0.50180066
H       -0.39509326       0.40661442       1.26876712
H       -1.25888395      -0.55223787       0.31343460
H       -0.56593245      -0.13097823       1.03470039
H        0.03804636       1.41126716       0.22663498
H       -0.76142925       2.08721447      -0.32679838
H       -1.22765124       1.45134008      -0.89807910
H       -0.26214707       1.36694682      -0.80458897
H       -0.28452563       1.86937594       0.49367112
H       -0.97002596       1.23350155       0.76535833
