10
Properties=species:S:1:pos:R:3 pbc="F F F"
H        0.00000000       0.00000000       0.00000000
H       -0.32983679       0.96807545      -0.08579928
H       -0.01616727       0.31530851      -0.92107552
H       -0.86013508       0.00000000      -0.55180621
H       -0.85969800       0.58962125       0.63813472
H        0.07280666       0.98853242       0.79507065
H       -0.08793676       0.09064153       0.31647530
H       -1.33109522       0.11800810      -1.39580345
H       -1.14044595       0.94973910      -0.92682874
H       -0.53206402       0.36654830      -1.41449761
