21
Properties=species:S:1:pos:R:3 pbc="F F F"
H        0.00000000       0.00000000       0.00000000
H       -0.30820453      -0.91843063       0.09775501
H        0.91605562      -0.05341591      -0.45968771
H       -0.53146905       0.33235219      -0.81265402
H        0.87033701       0.38636053      -1.32719421
H        1.07861447      -1.00775325      -0.56397474
H       -0.07740206       0.71871269      -1.53851533
H       -1.16567087      -1.04281747      -0.45233881
H        1.04398513      -0.32271940      -1.97148681
H       -1.25893795      -0.33789375      -1.08630204
H        0.27677470      -1.56397462      -0.24617815
H       -1.13635433      -0.56750727      -2.07906318
H        1.20210075      -1.20251179      -1.56404686
H       -0.40965110      -0.01172847      -2.41233969
H       -0.43260357       0.21973297      -2.29542494
H       -0.07842681      -2.06295443      -1.00308776
H        0.46907255      -1.83334088      -1.84025311
H       -0.96951872      -1.75189734      -1.09014034
H       -0.14681438      -1.33829284      -2.49518394
H       -0.98611420      -1.35298610      -2.03561306
H        0.20330739      -0.41167438      -2.55344200
