21
Properties=species:S:1:pos:R:3 pbc="F F F"
H        0.00000000       0.00000000       0.00000000
H       -0.92830116      -0.43148959      -0.07346868
H        0.57267553      -0.58319080      -0.52914286
H        0.10094517      -1.31500196      -0.96501410
H       -0.01969359       0.95566529      -0.37368414
H        0.21938741      -1.19699383      -1.92423582
H        0.79034615      -0.42239171      -2.07275724
H       -1.50143266       0.22959304      -0.50072855
H        0.62193668       0.97256428      -1.10586298
H       -1.76514840      -0.14886117      -1.35821748
H       -0.93569994       1.07367337      -0.68201411
H        1.09202600      -0.09003952      -1.14979720
H        0.26529896       0.23869091      -2.55789232
H       -0.68985397      -0.96738029      -2.34122705
H       -0.84135890      -1.16352117      -0.77219951
H        0.17827389       1.05516338      -1.94216228
H       -1.28322351      -1.04354119      -1.50181389
H       -1.45181155       0.40280575      -2.02591610
H       -0.63431609      -0.10839957      -2.69310308
H       -1.28249240       0.47742128      -2.15458155
H       -0.88464957       1.15806663      -1.65068984
