21
Properties=species:S:1:pos:R:3 pbc="F F F"
H        0.00000000       0.00000000       0.00000000
H       -0.67230010      -0.60990006       0.35227177
H       -1.41321456       0.00481451       0.70793402
H       -0.29223189      -1.16612136       1.12653911
H       -1.14914644       0.98413366       0.55132639
H       -0.85433912      -0.93650782       1.95396698
H        0.64856172      -0.94828284       1.25109696
H       -0.26529813       1.03481030       0.14598086
H       -0.17544442      -0.58941734       2.55951715
H        0.90084261      -0.21647161       0.66044676
H        0.71237445      -0.60119236       2.15857530
H       -1.48389781      -0.18994407       1.71311903
H       -0.36582029       0.39996547       2.75497198
H        0.81357914      -0.18477097       0.50200558
H       -1.05484939       1.36258793       1.44348192
H       -0.55682325       1.29900217      -0.80193245
H        0.43031877       0.95618677       2.42315221
H       -1.19056106       0.69234198       2.20877695
H       -0.04908276       1.55734646       1.50534177
H       -0.28520977       0.61350799      -1.43784499
H        0.08268824       1.48388398       1.68237591
