21
Properties=species:S:1:pos:R:3 pbc="F F F"
H        0.00000000       0.00000000       0.00000000
H        0.19410905      -0.89379078       0.33394706
H       -1.01378036       0.15966894      -0.00889638
H       -1.43176782      -0.65680349       0.45152000
H       -0.65098739      -1.27224493       0.63502073
H        0.60794199      -1.44956958      -0.35009468
H       -0.01694471      -2.22093821      -0.61053896
H       -0.80469859      -2.13654494      -0.04451555
H       -0.86670953      -2.91114712       0.54217613
H       -0.80534077      -2.10980701       0.06231773
H       -1.10991192      -2.98373795       1.91362560
H       -1.10991192      -2.98373795       1.91362560
H       -1.10991192      -2.98373795       1.91362560
H       -1.10932553      -3.03203464       1.91031885
H       -1.10991192      -2.98373795       1.91362560
H       -1.10991192      -2.98373795       1.91362560
H       -1.10991192      -2.98373795       1.91362560
H       -1.10932553      -3.03203464       1.91031885
H       -1.10932553      -3.03203464       1.91031885
H       -1.10991192      -2.98373795       1.91362560
H       -1.10991192      -2.98373795       1.91362560
