20
Properties=species:S:1:pos:R:3 pbc="F F F"
H        0.00000000       0.00000000       0.00000000
H       -0.33764970       0.29845181       0.92208624
H       -1.21698689      -0.11091015       1.00723279
H       -0.58949792       1.28783464       0.81711930
H       -1.27963865      -0.77199280       0.29511940
H       -0.54452312      -0.68759960      -0.33776599
H       -0.84229177      -0.34050912      -1.19737220
H       -2.07155561      -0.52134919      -0.21292222
H       -1.80697536      -0.22250101      -1.13803935
H       -2.02484965       0.71614432      -1.27781320
H       -0.45734078       0.53933853      -1.35781443
H       -2.39680958       1.06323481      -0.44761151
H       -2.45458722       0.31621277       0.23995808
H        0.10316092       0.75717700      -0.59201735
H       -1.96976709       0.58590662       0.97418177
H       -1.54951251       1.43931544       0.87616497
H       -1.18139911       1.18580532      -1.40458250
H       -1.82893085       1.77231479      -0.09721127
H       -0.26808259       1.58628643      -0.11075062
H       -1.04568744       1.85605121      -0.63928741
