21
Properties=species:S:1:pos:R:3 pbc="F F F"
H        0.00000000       0.00000000       0.00000000
H        0.50421435      -0.31530851      -0.77097952
H        0.65354043      -1.37281752      -0.61766958
H        0.50351435       0.58319080       0.59533417
H        0.27687919      -1.68812609       0.22302526
H       -0.20142817      -0.87165368       0.62041521
H        1.71526909      -1.50358319      -0.47710037
H        0.94241107      -2.00343466       0.85997796
H        1.41736126       0.67214578       0.13675490
H        2.10483670       0.35683727       0.74995887
H        2.52382755      -0.41776484       0.33462867
H        2.08757520      -0.60253584      -0.51602089
H        1.35552967       0.15435252      -0.71861923
H        2.37954879      -1.25532675       0.90995240
H        1.87178850      -1.91447961       0.43375209
H        1.79958081      -0.95687497       1.70234585
H        1.59080124      -0.06100565       1.65579343
H        0.18659398      -0.65381515       1.48646724
H        0.94241107      -1.44765592       1.65945959
H        0.66862714       0.18427962       1.52642584
H        2.06395698       0.27134654       0.80786085
