21
Properties=species:S:1:pos:R:3 pbc="F F F"
H        0.00000000       0.00000000       0.00000000
H        0.63848275      -0.52769721      -0.51179713
H       -0.55369717       0.46354809      -0.72929174
H        0.47764969      -0.43874222      -1.52152157
H       -0.26850003       0.17115784      -1.66060245
H       -1.48642898       0.21290451      -0.60580134
H       -1.05738592      -0.32389024      -2.09177542
H       -1.82757294      -0.34078923      -1.49630308
H       -0.62887782      -0.58582085       0.56093717
H       -1.74549437      -0.31304705      -1.44816947
H       -2.69126797       0.40532607      -0.40303269
H       -2.69126797       0.40532607      -0.40303269
H       -2.69126797       0.40532607      -0.40303269
H       -2.69126797       0.40532607      -0.40303269
H       -2.69126797       0.40532607      -0.40303269
H       -2.69126797       0.40532607      -0.40303269
H       -2.69126797       0.40532607      -0.40303269
H       -2.69126797       0.40532607      -0.40303269
H       -2.69126797       0.40532607      -0.40303269
H       -2.69126797       0.40532607      -0.40303269
H       -2.69126797       0.40532607      -0.40303269
