21
Properties=species:S:1:pos:R:3 pbc="F F F"
H        0.00000000       0.00000000       0.00000000
H        0.97460508       0.08895500       0.30912116
H       -0.57594448       0.05341591       0.84779638
H       -0.16713937       0.73181123      -0.62014329
H        0.08432567       0.14237091       1.62847197
H        0.97460508       0.21334189       1.32787120
H        1.26418054       0.87572753      -0.07228786
H        1.49327302       1.51160192       0.62859821
H       -0.90117127       1.28803253      -0.16722077
H        0.51760185       1.30721712      -0.62884963
H        1.35310340       1.15544558       1.47788298
H       -1.13441837       0.92218041       0.76287162
H       -0.88086987       1.55805480       1.45528603
H       -0.11247113       1.02221859       1.99616742
H        0.25796998       2.23462391      -0.27412215
H       -0.66665548       2.15023065       0.01914659
H        0.85060304       2.36994481       0.50880575
H       -0.54272771       2.37171555       1.04094684
H        0.27604735       2.45889974       1.35455787
H        0.53099787       1.68753123       1.98170602
H        0.61978829       1.68139720       1.96670580
