21
Properties=species:S:1:pos:R:3 pbc="F F F"
H        0.00000000       0.00000000       0.00000000
H        0.42330277      -0.73181123      -0.48304045
H        0.25714624      -1.54547203       0.02529907
H        0.08863404      -0.82076621      -1.44917083
H       -0.31841785      -1.70061386      -1.53993273
H       -0.64608496       0.34709048      -0.64043999
H       -0.42333582      -0.37845421       0.79096156
H       -0.63549614      -0.09821832      -1.53214014
H       -0.26613119      -1.33891702       0.76165891
H       -1.52725863       0.19560969      -0.25489166
H       -1.17894435      -1.80246508       0.68941599
H       -1.55635715      -0.52970791      -1.67054415
H       -1.88010406      -1.05505657       0.63392401
H       -2.11685872      -0.31186941      -0.90474707
H       -2.35509038      -1.17671382      -0.52613026
H       -1.98490500      -1.90852499      -1.05098844
H       -1.32585263      -1.57622695      -1.69134867
H       -0.20140800      -2.19959354      -0.71205062
H       -2.26204348      -1.10573316      -0.26028806
H       -1.18557727      -2.33066201      -0.28598535
H       -1.21389222      -1.88638806       0.52033764
