21
Properties=species:S:1:pos:R:3 pbc="F F F"
H        0.00000000       0.00000000       0.00000000
H        0.12529835      -0.08895500      -1.01474690
H        0.49320230       0.82263768      -1.30965257
H        0.30129555       0.87984765       0.28835735
H        0.67569715       1.40579915      -0.50946605
H       -0.13324592       1.29229867      -1.88848066
H       -0.94688702      -0.11800810       0.19375233
H        0.12549460       2.26344156      -0.63214684
H       -0.97046506       0.70647782      -1.98440742
H       -1.44510901      -0.20696309      -0.69910026
H       -0.32162771       2.18361020      -1.43342495
H       -0.56425822       2.28125405       0.12762129
H       -0.71632689      -0.22477555      -1.42151511
H       -0.49503598       1.37489569       0.70561904
H       -0.82618630      -0.13108414      -1.40908360
H       -0.04660535       0.72703063      -2.72495794
H       -0.04660535       0.72703063      -2.72495794
H       -0.04660535       0.72703063      -2.72495794
H       -0.04660535       0.72703063      -2.72495794
H       -0.04660535       0.72703063      -2.72495794
H       -0.04660535       0.72703063      -2.72495794
