20
Properties=species:S:1:pos:R:3 pbc="F F F"
H        0.00000000       0.00000000       0.00000000
H        0.63883960       0.60990006      -0.40983751
H        1.24528956      -0.06034589      -0.89595765
H       -0.85031837       0.31530851      -0.35440117
H        0.20095634       1.25276756      -1.07939219
H        0.14168036      -0.93864530      -0.21663933
H        1.12998891       0.19029769      -1.82973719
H        0.96438944      -0.95645773      -0.82995528
H       -0.65670210      -1.27099752      -0.76931590
H        0.52556843       0.98857570      -2.01649070
H        0.78995460      -0.58430445      -2.31184626
H       -1.24349570      -0.50116390      -0.83617735
H       -0.05684501      -0.30115783      -2.70020080
H        0.69359165      -1.27176619      -1.71047223
H       -1.32666779      -0.28332540      -1.78152895
H       -0.26148021      -1.45653713      -1.75240493
H       -0.93263888       0.65877831      -1.88402629
H       -0.72253132      -0.94402540      -2.25645876
H       -0.23187143       0.67326719      -2.54082489
H       -0.63472450       1.02463043      -0.97258615
