20
Properties=species:S:1:pos:R:3 pbc="F F F"
H        0.00000000       0.00000000       0.00000000
H        0.52815789      -0.26419187       0.83939010
H       -0.27437809       0.92909771       0.09774981
H        0.06821725       1.27618814       0.94049382
H       -0.75623721      -0.52573669      -0.00663632
H       -1.24436069       1.01349092       0.08923778
H       -1.55716944       1.36058140       0.94348586
H       -0.75623721      -1.10892749       0.77307481
H       -2.06528497       0.62877017       1.33633685
H       -1.60651135       0.05782562      -0.00496721
H       -2.11191487      -0.16001287       0.79826033
H        0.48297751       0.54437691       1.43088889
H        0.09505010      -0.87931395       1.29834759
H       -1.60752439      -0.87931395       1.29834771
H       -1.58838129       0.41093168       2.15680647
H       -0.76411152       1.50580168       1.49531841
H       -1.26863670      -0.50749898       2.10874939
H        0.00489303       0.33831346       2.19069862
H       -0.29513663      -0.49059999       2.10020638
H       -0.79147512       0.92261088       2.27454925
