20
Properties=species:S:1:pos:R:3 pbc="F F F"
H        0.00000000       0.00000000       0.00000000
H        0.02715597      -1.02162731       0.09414954
H        0.24484433       0.25064358      -0.90845472
H       -0.92414576      -1.35397947       0.28880525
H       -0.53037208       0.66000557      -1.33215654
H       -1.25256515      -1.85295916      -0.48010361
H       -0.90251714       0.31530851       0.18467337
H       -0.53752971      -1.86985815      -1.14078474
H       -2.01489019      -1.38329816      -0.86264735
H       -1.25601685       0.71068221      -0.68490654
H       -1.75681102      -1.11910629      -1.82020760
H        0.27669019      -1.38747942      -0.83170617
H       -0.81840837       0.10422677      -2.07794857
H       -0.16922295      -0.69017226      -2.10645127
H        0.55502826      -0.63401705      -1.30868316
H       -2.20778251      -0.46165031      -0.33587879
H       -1.45478797      -0.54233390       0.29767922
H       -0.83555281      -1.40225291      -1.95867121
H       -1.99981523       0.18298501      -1.02602315
H       -1.75373554      -0.21592617      -1.93906128
