21
Properties=species:S:1:pos:R:3 pbc="F F F"
H        0.00000000       0.00000000       0.00000000
H        0.42330277      -0.73181123      -0.48304045
H       -0.20265561      -1.11026549       0.15961766
H        0.78545290      -1.34652579       0.25472450
H        0.18759406      -1.22851765       1.01413202
H       -0.56036717      -0.75366068      -0.25699246
H       -0.06820698      -0.05067664       0.96996939
H       -0.59134364      -0.40146273       0.95144540
H       -0.69996321      -1.30943942       0.53020746
H       -0.82135117      -0.14376062       0.45572782
H        0.38513035      -0.94535673       1.18758547
H       -0.21406227       0.32108516       0.32782120
H        0.15225029      -1.01136279       1.10359979
H        0.34335947       1.05201411       1.10050833
H        0.50951594       0.23835331       1.60884786
H       -0.43948030       0.50329202       0.95190954
H        0.84159863      -0.10646284       0.04828423
H        1.01361156       0.41613972       0.79312110
H       -0.44414115       0.58272076       0.99704438
H        0.69350427      -0.44150865       0.89465135
H        0.83303428      -0.88489604       0.29217112
