21
Properties=species:S:1:pos:R:3 pbc="F F F"
H        0.00000000       0.00000000       0.00000000
H       -0.77018702      -0.01689900       0.59547228
H       -0.50759143      -0.73944688      -0.08444828
H       -0.82722741      -1.00628185       0.86229050
H       -0.02651650      -1.25692546       1.35635602
H       -0.11161754      -1.58927763       0.38907951
H       -0.03446149       0.29845181       0.98135763
H        0.73154682      -1.02731192       0.70371407
H        0.83232874      -0.22961354       0.55482459
H        0.34596467      -0.47291669       1.54134917
H       -0.47927374      -0.37040746       1.51240814
H        0.38504878      -0.96392924      -0.06983209
H        0.71396887      -0.17120922       0.57229602
H        0.25794172       0.26084119       0.76850128
H       -0.09329945      -0.43319717       0.91854954
H       -0.09382933      -0.45967153       0.91779828
H        0.94596756      -1.11882186       2.25076723
H        0.94596756      -1.11882186       2.25076723
H        0.94596756      -1.11882186       2.25076723
H        0.94596756      -1.11882186       2.25076723
H        0.94596756      -1.11882186       2.25076723
