21
Properties=species:S:1:pos:R:3 pbc="F F F"
H        0.00000000       0.00000000       0.00000000
H       -0.39122835      -0.01598554      -0.83368021
H        0.47208750       0.55622131      -0.72185534
H        0.32858443       1.17093587       0.08737683
H       -0.17513794       0.85764241       0.53581733
H       -0.60269821       1.45408249       0.11189963
H       -0.99242461       0.52529025       0.01150006
H       -0.07112232       1.42157948      -0.76437032
H       -1.18920207       0.53979325      -0.78460085
H       -0.83064151       0.29826480       0.26345932
H       -0.34012049       0.86386210      -1.24758482
H       -0.86581802       0.06778544      -0.06281883
H       -0.86421752       1.44705296      -0.67028791
H       -1.25876164       0.94807327       0.06687903
H        0.32127115       0.03975642       0.11653917
H        0.29622433       0.25159609       0.04149587
H        0.10586873       1.38429725      -0.41429728
H       -0.63455987       1.29746759       1.47174275
H       -1.03651798       2.09186649       1.98231483
H       -0.29969156       2.20906019       1.13980019
H       -1.61766887       1.56416929       1.40624166
