21
Properties=species:S:1:pos:R:3 pbc="F F F"
H        0.00000000       0.00000000       0.00000000
H        0.88791460       0.34709048      -0.19798161
H        0.77090466      -0.15188923       0.62990052
H        1.34900522       0.66458321       0.85902154
H        0.03497398       0.90331179      -0.32617727
H        1.65429878      -0.00566274       0.14425582
H        0.92297381       1.31252170      -0.07643161
H        0.60365379       0.49097833       1.41225100
H        0.88905472       1.43052983       0.88947958
H        1.31019843       1.30045760       0.12266654
H       -0.39091539       0.78530371       0.54143631
H        0.82911104       0.27748388       0.57663763
H        1.58895087      -0.28880936       1.07356668
H        0.15290558       1.48913264       0.50822663
H        0.12675184       1.10061216       1.30344820
H        0.96030968       0.45859915       0.75810713
H       -0.32066095       1.02954066      -0.03674065
H        0.99488217       0.47499278       0.57857084
H        1.20745480       0.28477234       0.74512392
H        2.11499333      -0.24275801      -0.61724544
H        2.11499333      -0.24275801      -0.61724544
