21
Properties=species:S:1:pos:R:3 pbc="F F F"
H        0.00000000       0.00000000       0.00000000
H        0.54069358       0.79439902       0.36042264
H       -0.47331387       0.91878593       0.45860943
H        0.02149901       1.44648314      -0.19312426
H        0.62954605       0.63473010      -0.64949572
H        0.12478849       0.78298080      -0.14920273
H       -0.23386395       1.00670671      -1.02345395
H       -0.99734956       0.23329175       0.00744963
H       -0.99809366       1.07845485      -0.40882114
H       -0.22999018       0.20324051      -1.00773871
H       -0.92486161       0.05175972      -0.34270626
H       -0.20765167       1.52272880      -0.24708068
H        0.37748086      -0.11893058      -0.08689493
H        0.36849028       0.49452901      -1.92285776
H        0.54857665      -0.29987001      -1.29849982
H        0.42763811       1.28913915      -1.36325336
H       -0.45956653       0.05475256      -1.66021824
H       -0.39222956       1.02222621      -1.62135839
H        0.99490047       0.57892221      -1.18221676
H        0.06409425      -0.64696050      -0.52852196
H       -0.19146496       2.02812839      -0.77073568
