21
Properties=species:S:1:pos:R:3 pbc="F F F"
H        0.00000000       0.00000000       0.00000000
H        0.13252793       0.60990006       0.74734145
H       -0.27258459       0.98938280      -0.01196790
H        0.21689254       0.59047163      -0.82104516
H        1.20400476       0.85466349      -0.72546273
H        0.85281783      -0.05341591       0.56848252
H        0.49056038       1.53257537      -0.51959801
H        1.31807315       1.48189878      -0.00899488
H        0.92553318      -0.05239594      -0.44973177
H        1.23829412       0.87199873       0.74580187
H        1.57596469       0.50757301       0.10473895
H        0.55628002       1.54224467       0.37304062
H        1.06901908       0.86054361       0.83802223
H        0.82012534       0.01952600      -0.16038817
H        1.12552309       0.61680448       0.02484754
H        0.48566753       2.58097458      -0.07027093
H        0.48566753       2.58097458      -0.07027093
H        0.00636035       1.84916329       0.35725445
H        0.71816212       2.10896683      -0.82624233
H        0.27614468       1.44811404      -0.26045382
H       -0.00289144       1.17036700      -1.76755834
