21
Properties=species:S:1:pos:R:3 pbc="F F F"
H        0.00000000       0.00000000       0.00000000
H       -0.13959605      -0.55577880       0.78719991
H        0.52701271      -0.29158694       1.52147460
H        0.71043110      -0.47635791       0.58324307
H        0.54291254       0.61695898       1.67190504
H        0.82451516       0.49897972       0.13876182
H       -0.40179563       0.21804780       1.63042736
H       -0.77506644       0.19475858       0.64394492
H        1.07558465       0.31804112       1.12075305
H       -0.09245846       0.94706190       0.20636410
H       -0.32841212       1.03145516       1.14724898
H        0.67506838       1.16006231       0.83783001
H       -0.28714383      -0.50450009       0.91063344
H       -0.81621474       0.24244434       0.58559781
H       -0.44565886      -0.35967273       1.09626722
H       -0.61372209      -0.85048330      -0.42484626
H       -0.61372209      -0.85048330      -0.42484626
H       -0.61372209      -0.85048330      -0.42484626
H       -0.57440948      -0.87587595      -0.42821252
H       -0.57440948      -0.87587595      -0.42821252
H       -0.57440948      -0.87587595      -0.42821252
