21
Properties=species:S:1:pos:R:3 pbc="F F F"
H        0.00000000       0.00000000       0.00000000
H        0.50421435      -0.31530851      -0.77097952
H       -0.19744503      -1.04785943      -0.40332410
H        0.13896774       0.40936196      -0.87245154
H       -0.18048289      -0.92985135      -1.36968184
H       -0.79377991       0.42717442      -1.30022311
H       -1.08058751      -0.49493599      -0.12321272
H       -0.92877388      -0.37407255      -1.65116239
H       -0.95442921      -0.36585209       0.09241779
H       -1.35805273      -0.02698207      -0.84909701
H       -0.05765402      -0.07580775      -1.62822378
H       -0.72877979       0.49875462      -0.42962798
H       -0.20236588      -0.87887621      -0.18698281
H       -1.04073429      -1.01694012      -0.85900706
H        0.05334842      -0.09633237      -1.30127168
H       -0.18417084      -0.71074116      -1.00876212
H       -0.41937831       0.95312595      -2.09804654
H       -0.52769446       1.73989844      -2.56451678
H       -0.44521347       1.12729239      -2.33926988
H       -0.17748147      -0.68242264      -1.05872703
H       -2.08600330      -1.27010381      -1.21084714
