21
Properties=species:S:1:pos:R:3 pbc="F F F"
H        0.00000000       0.00000000       0.00000000
H        0.52815789      -0.26419187       0.83939010
H        0.56554490       0.66108263       0.43725249
H        0.54852116       0.57668942      -0.53261805
H        0.42300433      -0.81809604       0.01113869
H        1.39282918       0.81256342      -0.05337483
H        1.40577006       0.17668903      -0.79063809
H        1.86022031      -0.03623569       0.04226287
H        1.32711983      -0.74174160      -0.47701377
H        1.33100963       0.28661186       0.82575953
H        1.33476365      -0.60925746       0.61188591
H        0.60808969      -0.29039884      -0.78594345
H        0.47438902      -0.83887100       0.10163409
H        1.11444139      -0.40600091       0.36678696
H        1.43774366      -0.02512013      -0.16473339
H       -0.71772528      -0.57693243       0.01889934
H        0.49537942      -0.60150278      -0.49105135
H        0.52763355      -0.62534839      -0.42294222
H        1.85134959      -1.33135581      -0.83990943
H        2.15541124      -1.09973884      -0.66170096
H        2.15541124      -1.09973884      -0.66170096
