12
Properties=species:S:1:pos:R:3 pbc="F F F"
H        0.00000000       0.00000000       0.00000000
H        0.63848275      -0.52769721      -0.51179713
H        0.12560120       0.05341591      -1.01719964
H        0.95052093      -0.08895500       0.37672392
H        1.42435169       0.74277604       0.19848558
H        1.59137821      -0.03827836      -0.35457280
H        0.45200780       0.80572510       0.44272530
H        1.55482745       0.84156930      -0.77001595
H       -0.03852642       0.92740691      -0.43789953
H        0.86688703       1.35267615      -0.31660280
H        0.62881619       0.96595621      -1.19469810
H        1.09509015       0.05436355      -1.26477838
