12
Properties=species:S:1:pos:R:3 pbc="F F F"
H        0.00000000       0.00000000       0.00000000
H        0.75986940       0.40936196      -0.45064643
H        0.43471673       0.80827314       0.43731168
H        0.16306278       0.05461246       0.99071980
H        1.55529666      -0.11833525      -0.25857347
H        0.29722244      -0.78294951       0.41295260
H        1.36147273       0.69250858       0.26066390
H        0.91006070      -0.56511104       1.13754666
H        1.03536296       0.47592095       1.20026004
H        0.65734667      -0.55577880      -0.45504522
H        1.69252479      -0.21802056       0.67350030
H        1.30236340      -0.87190449       0.22559606
