21
Properties=species:S:1:pos:R:3 pbc="F F F"
H        0.00000000       0.00000000       0.00000000
H        0.80713278      -0.08439321       0.53802919
H        0.72688228      -0.54794133      -0.37411493
H        0.19333285       0.19475858      -0.98894662
H        0.19333285       0.80465865      -0.22994536
H        1.57917774       0.03999369      -0.12664998
H        1.19677758       0.05689269      -1.02194071
H        1.05061626       1.04175389       0.00919622
H        1.29380023       0.81028688       0.41143405
H        1.68246341       0.82901281      -0.59490466
H        0.49204057       0.36488220       0.58579433
H        0.88266742       0.88025278      -1.04350281
H        0.64915967      -0.70686549      -0.61023402
H        0.44283712       0.91661429       0.60503542
H       -1.09867764       0.21473382      -0.16512954
H       -1.63112926      -0.45551211      -0.73133582
H       -0.80043370      -0.64028311      -0.25819150
H       -0.63971549       0.82463390      -0.76964301
H       -0.94238818      -0.98320931      -1.17318678
H       -0.50378263      -0.10057469       0.53824914
H       -0.25427103      -0.34034175      -1.58127999
