12
Properties=species:S:1:pos:R:3 pbc="F F F"
H        0.00000000       0.00000000       0.00000000
H       -0.27385142       0.28314662      -0.89044607
H       -0.36103788      -0.59670103      -0.48261338
H        0.29036230      -0.92909771      -0.02298020
H        0.98182577      -0.24360353      -0.02904822
H        0.21173689      -1.30755186      -0.91665322
H        0.60904062       0.51005715      -0.52005512
H        1.08931410      -1.02440524      -0.60400778
H        0.52830374       0.19474864      -1.43772781
H       -0.17687726      -0.47051406      -1.49925840
H        0.78277576      -0.74389666      -1.48516095
H        1.27841711      -0.10802227      -0.93920827
