13
Properties=species:S:1:pos:R:3 pbc="F F F"
H        0.00000000       0.00000000       0.00000000
H        0.35866648      -0.83756196      -0.47241095
H       -0.49209499      -0.92651695       0.09470084
H       -0.23254140      -0.18477097       0.92727828
H        0.25862440      -1.49864459       0.23541835
H       -0.17608014      -1.18333602       1.04762113
H        1.12274861      -1.08820558       0.07660386
H        0.53325617      -0.71072257       1.36345828
H        0.66128230      -0.00164264       0.70857209
H        0.89427245      -0.17478335      -0.13440771
H       -0.51853889      -0.22970021       0.84774208
H        0.82325375      -1.31387365       1.00685489
H        1.25527656      -0.47830552       0.82394528
