21
Properties=species:S:1:pos:R:3 pbc="F F F"
H        0.00000000       0.00000000       0.00000000
H       -0.58002573       0.67024595       0.51736289
H        0.32559341       0.98555446       0.34855705
H       -0.49672437      -0.17855316       0.98710954
H       -0.95359546       0.08439321      -0.17774837
H        0.29888821       0.29179174       0.69720650
H       -0.31427068      -0.66301531      -0.47095191
H       -0.47491217       0.38525480       0.43492603
H        0.10758334      -0.75548559       0.59942544
H       -1.37199903      -0.13034061       0.85147399
H       -0.95763886       0.50553381       1.46141672
H       -0.75978172      -1.05375040       0.68341279
H       -1.25166273       0.16811121      -0.12308723
H       -1.17229342      -0.72139823      -0.19562083
H       -0.21960935      -1.02391696      -0.87861705
H        0.49341622      -0.77327335      -1.49248445
H       -0.45353317      -0.77238458      -0.19613951
H       -0.45678702      -0.79017234      -1.70435500
H       -0.62698263      -0.98082387       0.89729637
H       -2.12524319       0.56647611       0.87130862
H       -1.86342931      -0.01934475       1.67230248
