12
Properties=species:S:1:pos:R:3 pbc="F F F"
H        0.00000000       0.00000000       0.00000000
H        0.75529516      -0.29845181       0.62751859
H        0.90732777      -0.18044370      -0.32695568
H       -0.15245104      -0.76199991       0.74770099
H        0.23698902      -0.67942345      -0.82668179
H       -0.52581829      -0.94361532      -0.19292200
H        1.25482297      -0.86593789       0.27087843
H        0.80267477      -1.71473694       0.11868428
H       -0.13102390      -1.70410359       0.34112337
H        0.92740524      -1.09555149      -0.67431945
H        0.61205441      -1.18124640       0.93079513
H        0.11675942      -1.66880631      -0.58175236
