21
Properties=species:S:1:pos:R:3 pbc="F F F"
H        0.00000000       0.00000000       0.00000000
H        1.00909960       0.15966894       0.09771150
H        0.49246496      -0.48319864       0.70855838
H        1.13319802       0.15267575       1.07350469
H        0.19918540      -0.01353762       1.50947452
H        1.13224185       0.99139994       0.58875167
H       -0.36873025      -0.04342219       0.82257760
H       -0.31321260       0.84410477       1.27448142
H        0.43505073       0.89148015      -0.19035301
H        0.19102579       1.39031112       0.67989004
H       -0.52771181       0.79439902       0.37917584
H        0.68976343       1.03886330       1.37159991
H        0.34429044       0.95406795      -0.13797182
H        0.58293748       0.88025320       1.46550512
H        0.37172511       0.20229554       1.38942575
H        0.14366134       0.60712051       0.43951792
H        0.18957861       0.57358170       0.46634093
H        0.28477085      -1.06736529      -0.24516869
H        0.28477085      -1.06736529      -0.24516869
H        0.28477085      -1.06736529      -0.24516869
H        0.28477085      -1.06736529      -0.24516869
