14
Properties=species:S:1:pos:R:3 pbc="F F F"
H        0.00000000       0.00000000       0.00000000
H       -0.61304885      -0.15966894      -0.80746567
H       -0.56643391       0.58582085       0.62393135
H       -1.53806257      -0.45812076      -0.47792065
H       -0.42040592      -0.36124104       0.79658866
H       -1.34372139       0.08684114       0.93199694
H       -1.46389329       0.45347190      -0.94356167
H       -1.83185267      -0.05920959       0.42090142
H       -0.49122205       0.76773798      -0.38509321
H       -1.41463268       0.80365932       0.19829524
H       -1.51239824       1.13896608      -0.25377488
H       -0.69746435      -0.67595923      -0.03746417
H       -1.31790149      -0.72709310       0.45898262
H       -1.44732344       0.39440769      -0.47937405
