21
Properties=species:S:1:pos:R:3 pbc="F F F"
H        0.00000000       0.00000000       0.00000000
H        0.36038706      -0.22961354      -0.93312520
H       -0.39293563      -0.79439902      -0.51754773
H       -0.32472861      -0.74372238       0.45242167
H        0.41849393      -0.16053158       0.68815386
H        0.40327612      -1.18493867       0.74883616
H        1.17871654      -0.66938996      -0.64158726
H        0.97142875       0.05067664      -0.04265080
H       -0.06109959      -1.56339288      -0.01875001
H        0.93982917      -1.50112104      -0.19524965
H        1.25043702      -0.75834495       0.37834764
H        0.37051427      -0.22706354      -0.89464229
H        0.27462834      -1.16876888      -0.90262067
H        0.90589821      -1.51729083      -0.08196890
H        0.43949497      -0.69073915      -0.33102947
H       -1.29213810      -1.44030416      -0.75145411
H       -1.29213810      -1.44030416      -0.75145411
H       -1.29213810      -1.44030416      -0.75145411
H       -1.29213810      -1.44030416      -0.75145411
H       -1.29213810      -1.44030416      -0.75145411
H       -1.29213810      -1.44030416      -0.75145411
