21
Properties=species:S:1:pos:R:3 pbc="F F F"
H        0.00000000       0.00000000       0.00000000
H        0.36329272       0.89468008       0.34769225
H        0.63862544       0.58582085      -0.54981393
H        0.80701941      -0.42655879      -0.55720729
H        1.30681062       1.02559733       0.00533140
H        0.59532028      -0.79439902       0.26047620
H        1.48312449      -0.64291823      -0.10954833
H        1.26481640      -0.41594481       0.85764313
H        1.60332322       0.21630877      -0.48010087
H        1.14796615       0.67850685       0.90107548
H        1.37864256      -0.31974745       0.84107041
H        0.31766164      -0.08895500       0.97185493
H        1.85993433       0.36893967       0.51194257
H       -0.11007202       0.28822371       1.15849566
H       -0.10013354       0.20008489       1.02192950
H        0.30292118      -0.43105829       0.89365983
H        1.66440845       0.55977869       0.35189354
H        1.76124883       0.40646297       0.53736347
H        2.14764524      -0.72731143      -0.81619602
H        2.14925146      -0.69359487      -0.81790406
H        2.17378783      -1.50531268       0.31661409
