12
Properties=species:S:1:pos:R:3 pbc="F F F"
H        0.00000000       0.00000000       0.00000000
H       -0.47398776      -0.23709527       0.75329894
H       -0.13894501       0.73098016       0.69084758
H       -1.08192563       0.51656544       0.85561198
H       -1.43328691      -0.29051119       0.39244458
H       -1.70815110       0.58933645       0.07879078
H       -1.39850891      -0.13321143      -0.58103496
H       -0.11440932       0.92909771      -0.26785979
H       -1.09389722       0.83486402      -0.73389280
H       -0.69087601      -0.60294735      -0.18074369
H       -0.86767018       1.23911333       0.15894639
H       -0.42265451       0.11543691      -0.70489752
