12
Properties=species:S:1:pos:R:3 pbc="F F F"
H        0.00000000       0.00000000       0.00000000
H       -0.26684549      -0.92909771       0.11675546
H        0.67258263      -0.56324565       0.30898151
H        0.50853932       0.28555346       0.75696683
H        0.70855170      -0.50982976       1.33327496
H       -0.90268302      -0.28065729       0.27029195
H       -0.71775442      -0.98973721       0.91143787
H       -0.88330215      -0.06233031       1.31866539
H       -0.00643134       0.10007030       1.58799458
H       -0.22377884      -0.67223036       1.69431412
H        0.18599114      -1.26006246       0.88430667
H       -0.36843041       0.49897972       0.75055927
