14
Properties=species:S:1:pos:R:3 pbc="F F F"
H        0.00000000       0.00000000       0.00000000
H       -0.19310522      -0.77460212      -0.55746114
H       -0.77999490      -0.52769721       0.24739547
H        0.58380467      -0.73181123      -0.26774123
H        0.74696171      -0.20606343       0.49791953
H        0.26366287      -0.73376065       1.15823674
H       -0.51958346      -1.21319139       0.88797677
H       -0.62446988      -1.49577260      -0.05586313
H        0.80440319      -1.17793691       0.48297748
H        0.09522921      -1.84286308       0.50057405
H       -0.56864965      -0.27021256       0.77652621
H        0.36896262      -1.41137350      -0.38948810
H        0.20511347      -1.67240596       0.90609014
H       -0.15154839      -0.08805533       0.85402989
