21
Properties=species:S:1:pos:R:3 pbc="F F F"
H        0.00000000       0.00000000       0.00000000
H       -0.96783787       0.05067664       0.09371616
H        0.21310127      -0.91843063      -0.24317469
H       -0.47167015      -0.79404372       0.51110631
H        0.11715371      -0.18477097      -0.94878644
H       -0.27432612      -1.14804411      -1.11668265
H       -0.75232387      -0.33438331      -1.35654759
H       -1.28793442      -1.05908906      -0.98248452
H       -1.36036539      -0.81416774      -0.12082344
H       -1.53082037      -0.07976991      -0.79469651
H       -0.65036339       0.44618165      -0.83335316
H       -0.01624101       0.14772984      -0.08359367
H       -0.72159159      -1.42494118      -0.20870686
H        0.31364369       0.25500548      -1.79498339
H       -0.18760544      -0.19003046      -1.24285364
H        0.75442445       0.02539194      -0.89703363
H       -0.17175841       1.24459291      -1.36202157
H        0.31188345       1.19117701      -0.45838374
H        0.75560713       1.14050043      -1.32360172
H        0.42612863       0.84568173      -2.09463668
H        1.01066387       0.44376850      -0.53844839
