12
Properties=species:S:1:pos:R:3 pbc="F F F"
H        0.00000000       0.00000000       0.00000000
H       -0.50007260       0.47200781      -0.61275923
H       -0.80345881       0.46966103       0.28623989
H       -0.84650040       1.22566843      -0.10281390
H        0.43788329       0.64286757      -0.66955465
H       -0.08391154       1.86853600       0.13906085
H       -0.52066964       1.19829011       0.78197342
H        0.73998308       0.59219092       0.25469023
H        0.44983321       1.21518910       0.70516473
H       -0.09825760       1.35005534      -0.79417807
H        0.69827491       1.48130178      -0.15517002
H       -0.03213490       0.46354809       0.91510344
