21
Properties=species:S:1:pos:R:3 pbc="F F F"
H        0.00000000       0.00000000       0.00000000
H        0.83968246      -0.37845421      -0.31585881
H        0.23708664      -0.98938280       0.13503888
H       -0.69726771      -0.74740851       0.09231577
H        0.69008017      -1.35777330      -0.58395785
H        0.65626413      -0.56322515      -1.25409031
H       -0.75355738      -0.01559728      -0.54748482
H       -0.98182219      -0.89544493      -0.89651799
H        0.02395338      -1.40844989      -1.29231358
H       -0.27458662      -0.41174436      -1.49622929
H       -0.80674225      -1.22367895      -0.81916940
H        0.26121479       0.16518807      -1.01831329
H       -0.70803005       0.14447695      -0.75052923
H       -0.28287375      -1.59928286      -0.41788426
H        0.17130208      -0.84794319      -0.13207614
H       -0.75319618      -0.96417594      -1.07552540
H       -0.23806441      -0.94167936      -1.32487035
H       -0.17516828      -0.78712803      -0.46288195
H       -0.18395936      -0.60258806      -0.45353356
H       -0.23074281      -0.68582428      -0.44004646
H       -1.13981497      -0.89222896       0.69695526
