12
Properties=species:S:1:pos:R:3 pbc="F F F"
H        0.00000000       0.00000000       0.00000000
H        0.17388797      -0.66108263       0.69339287
H        0.16200469      -0.90665692      -0.31589335
H       -0.63792932      -0.43148959      -0.67837071
H       -1.44722176      -0.63755304      -0.28988484
H       -0.79703194      -0.02283847       0.21281108
H       -0.25235558      -1.54253125       0.29404938
H       -0.71170175      -0.98630995       1.02407885
H       -1.28350997      -1.38522112       0.27093256
H       -1.34501624      -0.58687639       0.67709339
H       -0.75426090      -1.29626608      -0.60388535
H       -0.43271530      -0.15538681       0.86376864
