12
Properties=species:S:1:pos:R:3 pbc="F F F"
H        0.00000000       0.00000000       0.00000000
H        0.12256700       0.83228827       0.37498182
H       -0.17316402       0.26419187       0.97649413
H       -0.87537974      -0.33235219       0.42020985
H       -1.18507123       0.42386079       1.03873146
H       -0.83432972       0.08439321      -0.49480569
H       -0.53528547       1.21825981       1.03302920
H       -0.45555645       1.56535029       0.12681049
H       -1.37817645       1.19846296       0.48127031
H       -1.60284865       0.33789375       0.14656180
H       -0.17342246       0.77460212      -0.56389463
H       -1.16194463       1.01369202      -0.44994622
