21
Properties=species:S:1:pos:R:3 pbc="F F F"
H        0.00000000       0.00000000       0.00000000
H        0.19410905      -0.89379078       0.33394706
H       -0.78063321      -0.52595156       0.40903613
H       -1.03332126      -0.19359937      -0.52852166
H       -0.05123545      -0.01689900      -0.97218841
H        0.33558354      -1.52966523      -0.38973081
H       -0.61838424      -1.51185274      -0.01164073
H       -0.60129869      -1.52875173      -0.98502833
H        0.22621405      -1.47807515      -0.47442520
H       -0.68417454      -0.80831397      -1.27252865
H       -1.12870634      -1.17291856      -0.23670045
H        0.76198709      -0.61586303      -0.45190233
H        0.20707792      -1.15540445      -1.09016037
H       -0.16412431       0.03601417      -0.03344783
H       -1.23219585      -1.16631114      -0.62457144
H        0.38131607      -0.63226873      -0.93458080
H        1.55649447      -0.08991146      -0.07051402
H        0.80756831      -0.39947864      -0.38265631
H       -0.02857240      -0.80129796      -0.39011645
H       -0.11981575       0.48028463      -2.27349377
H       -0.11981575       0.48028463      -2.27349377
