21
Properties=species:S:1:pos:R:3 pbc="F F F"
H        0.00000000       0.00000000       0.00000000
H       -0.92830116      -0.43148959      -0.07346868
H       -0.13008943      -0.81366080       0.51874250
H       -1.20277655      -0.84085155       0.76626164
H        0.28438684       0.01781246       0.98596692
H       -0.42493132      -0.59582233       1.42078209
H       -0.13290361       0.83147323       0.65147364
H       -1.57141125       0.06749013       0.46084356
H       -0.42534861       0.39626667       1.53470087
H       -1.14049959       0.77657008       0.97033530
H       -1.22619450      -0.13177162       1.43313360
H       -0.22289652      -0.92980653       0.47429234
H       -0.95826834       0.51252604       0.03639820
H       -1.30479717      -0.07135558       1.01722026
H        0.18445972      -0.18624711       0.81776559
H       -1.32613027       0.49197319       1.16183555
H       -0.81438559       0.37662730       2.59712052
H       -1.21483839       0.73462451       3.34532738
H       -1.77588105       0.52810812       2.62243891
H       -1.28486431       0.72286671       1.74249816
H       -0.69705147      -0.62929571       2.43076134
