21
Properties=species:S:1:pos:R:3 pbc="F F F"
H        0.00000000       0.00000000       0.00000000
H       -0.93989587      -0.24138860      -0.47165081
H       -0.23324710       0.36585209       0.93009239
H       -0.73010123      -0.49504808       0.52459842
H       -1.30967426       0.20176867       1.00612247
H        0.05498606       1.00871968       0.18379027
H       -0.89592910       1.11336136       0.77998620
H       -0.52685028       0.73357767      -0.67892206
H       -0.45896229       0.60990006      -0.60451347
H       -1.15975678       1.27303028      -0.19890326
H       -1.24801064       0.34803963       0.77757502
H       -1.61996508      -0.09167266      -0.04627949
H       -1.53480577       0.85538924       0.16320226
H       -1.21365631       0.66198802      -0.50992763
H       -0.81489581      -0.64459610       0.41226873
H       -2.03658724      -1.01907957      -0.18651555
H       -1.96460664      -1.00126708       0.83711791
H       -1.09054303      -1.07249546      -0.58081371
H       -1.14749348      -0.27809644      -1.22812414
H       -1.25042605      -0.60894740       0.32078731
H       -1.86426938       0.35777795      -1.05504334
