21
Properties=species:S:1:pos:R:3 pbc="F F F"
H        0.00000000       0.00000000       0.00000000
H        0.12529835      -0.08895500      -1.01474690
H        0.19567180       0.80572510      -0.51683217
H        0.81546128       0.54691941      -1.27436173
H        1.62309289       0.32908091      -0.77602601
H        0.68431515       0.75504845       0.32383454
H        0.48507446      -0.77460212      -0.33579054
H        1.06435299       1.16664290      -0.57696956
H        1.44521081       0.45346782       0.22707403
H        1.41080105      -0.52856147      -0.25381374
H        0.80628103      -0.30494109       0.45433959
H        1.10052550      -0.36317292      -1.08593869
H        1.10136020       1.15028453      -0.44340122
H        0.84372258       0.41463292      -0.61423320
H        0.94721276       0.31583574      -0.42187843
H        0.95468056       0.29210067      -0.53789771
H        1.08214235       0.39605850      -0.68498659
H        1.27355611       2.00145030      -0.43886688
H       -0.28806064      -0.72668910      -0.94518054
H        1.98122144       0.04618904      -1.15563977
H        1.98122144       0.04618904      -1.15563977
