21
Properties=species:S:1:pos:R:3 pbc="F F F"
H        0.00000000       0.00000000       0.00000000
H       -0.04850490       0.68549418       0.68978679
H       -0.01596547       0.34709048      -0.90957916
H       -0.27403602       0.77858007      -0.01485002
H        0.40990660       1.21006966      -0.64680189
H        0.88421553      -0.19475858      -0.48327625
H        1.06975317       0.54898703      -0.92181683
H        0.87182587       1.00080276       0.64937943
H        0.14374343       1.56218362       0.19201154
H        1.39338541       0.44458145      -0.03758305
H        0.68346113      -0.26762408      -0.47800949
H        0.99818850       1.37741268      -0.23675922
H        0.77071798       0.04033989       0.52548778
H       -0.48180205       0.53186142      -1.74439454
H        0.08432251       0.84142864      -1.16316628
H       -0.07531330       0.72317672      -1.26377940
H        0.49332467       1.27775311       0.08674587
H        0.35332054       1.02303028      -0.45174015
H        0.56249696       0.53872788      -0.01364416
H        0.69186628       0.51200676      -0.32124907
H        1.14513159       0.57226467      -0.07529783
