21
Properties=species:S:1:pos:R:3 pbc="F F F"
H        0.00000000       0.00000000       0.00000000
H       -0.12270200      -0.91159266      -0.45526573
H       -0.87942857      -0.08895500      -0.52155191
H       -0.05564343      -0.72682166       0.49837139
H       -0.05610859      -0.52873147      -0.79868335
H       -0.47463441      -1.50142384       0.08304125
H       -0.89453191      -1.08495283      -0.59622824
H       -0.84640926       0.16168858       0.41873968
H       -1.58061838      -0.67477584      -0.05414358
H       -1.26410723      -0.79916275       0.91419137
H       -0.38477010      -0.38980079       0.99933791
H       -0.49060416      -1.30823135       0.69381338
H        0.01674682       0.13063437       0.14373368
H       -1.14035010       0.09982628       0.33856031
H       -1.02016187      -1.29101622       0.29264343
H       -0.40359521      -1.12749159       0.90663981
H       -2.57418823      -0.44013277       1.23053825
H       -1.85962892       0.11564603       0.87196374
H       -1.49967372      -0.34661597       1.25883269
H       -2.66350865      -1.16268063       0.50716400
H       -2.06181312      -1.28706753       1.32924318
