12
Properties=species:S:1:pos:R:3 pbc="F F F"
H        0.00000000       0.00000000       0.00000000
H       -0.30729049       0.46966103      -0.79564559
H       -0.78936791      -0.23941889      -0.33426943
H       -0.73819411      -0.18874225      -1.30528653
H       -0.59668887      -1.05307972      -0.83316004
H        0.73455864      -0.61471456      -0.36861032
H        0.54024780       0.29194236      -0.66572547
H        0.65475333      -0.53978866      -1.15885115
H       -0.15884243      -1.00592303      -0.12732552
H       -0.23781919      -0.83824050      -1.56819773
H        0.13581637       0.13730884      -1.65966082
H        0.25813904      -1.31153131      -0.95238662
