15
Properties=species:S:1:pos:R:3 pbc="F F F"
H        0.00000000       0.00000000       0.00000000
H        0.58115071      -0.52769721      -0.57607329
H        0.87205893      -1.28135788      -0.03253955
H       -0.21133286      -0.95918679      -0.08708414
H        0.03439312      -1.43119454       0.66469061
H        0.54509127       0.08439321       0.80238038
H        0.10560679      -1.46612883      -0.60391665
H        1.02052498      -0.08895500       0.06276756
H        1.04652119      -1.30680764       0.54872328
H        1.28150904      -0.69885504       0.77548784
H       -0.34768283      -0.55134690       0.83186400
H        1.27176404      -0.54720598      -0.18366879
H        0.52248949      -1.87549078       0.17498815
H        0.45548311      -0.83403742       1.11305141
H       -0.35606849      -1.34953928       0.10545630
