21
Properties=species:S:1:pos:R:3 pbc="F F F"
H        0.00000000       0.00000000       0.00000000
H        0.15607943       0.96046287      -0.03480161
H       -0.38101840       0.08439321      -0.89205587
H       -0.53139585       0.64515436       0.57840252
H        0.30323035       0.69429326      -0.56359512
H       -1.34095240       0.79663515       0.05904448
H       -0.17725839       1.31846011      -0.81522572
H       -1.12184381       1.10062158      -0.72376108
H       -1.27631128       0.24496824      -0.67568201
H       -0.55366182       0.45775402      -1.28697896
H       -0.86556399      -0.05889942      -0.12197757
H       -0.23746324       1.48869228      -0.20317248
H       -0.64217198       1.54404366      -0.02102019
H        0.33716416       0.40707737      -0.89720726
H       -1.33878136       0.94360614       0.01949370
H        0.24666715       1.08497953       1.27240741
H       -0.36581284       1.83864021       1.20223069
H        0.74394518       1.97965956       1.19766736
H       -0.35644799       0.96195084       0.66870284
H        0.11514609       0.58599985       0.44670630
H        0.52380121       1.99830914       0.71600384
