21
Properties=species:S:1:pos:R:3 pbc="F F F"
H        0.00000000       0.00000000       0.00000000
H        0.47219095      -0.55577880       0.64514065
H        0.29388189      -0.08611777       1.47921813
H       -0.41112229      -0.83173102       0.29540297
H       -0.96132481       0.02591139       0.17272216
H       -1.15098655      -0.55727941       0.92901433
H        0.59511459       0.41286194       0.69925719
H       -0.20833378      -0.91612422       1.24398899
H       -1.08068776       0.49557242       1.01725268
H       -0.66333622      -0.09373131       1.70402670
H       -0.07149410       0.67705381       1.43353188
H       -0.28743368       0.84435153       0.40218934
H       -0.95391065       0.49228284       1.06575263
H       -0.64789855       0.77336067       0.62007660
H       -0.08455801       0.32931381       1.18721604
H       -1.19941950       0.34676263       0.82293391
H       -1.25914752       0.06211454       1.25992215
H       -1.37769103      -0.39297548      -0.46393150
H       -1.37769103      -0.39297548      -0.46393150
H       -1.21460915       0.08477157       1.22662199
H       -1.40748096      -0.51805353      -0.33639675
