8
Properties=species:S:1:pos:R:3 pbc="F F F"
H        0.00000000       0.00000000       0.00000000
H       -0.46163812      -0.66108263       0.54582143
H        0.64258742       0.18477097       0.70781487
H        0.11230269      -1.37016249       0.20544139
H        0.66036904      -0.72729492      -0.37736943
H        1.31506360      -0.56762600       0.39671376
H        0.18432650      -0.43146908       1.30958271
H        0.81296766      -1.17887759       0.99412310
