8
Properties=species:S:1:pos:R:3 pbc="F F F"
H        0.00000000       0.00000000       0.00000000
H        0.83968246      -0.37845421      -0.31585881
H       -0.46627399      -0.91159266      -0.07008027
H        0.40149829      -0.29845181       0.89613026
H        0.43943441      -1.32055783      -0.39046428
H       -0.16926095      -1.09636366       0.83860219
H        1.24667156      -0.69736302       0.47201222
H        0.74200422      -1.52909398       0.43207127
