8
Properties=species:S:1:pos:R:3 pbc="F F F"
H        0.00000000       0.00000000       0.00000000
H       -0.26684549      -0.92909771       0.11675546
H        0.51959407      -1.01805270       0.77014959
H        0.73390859      -0.07099080       0.69801080
H       -0.13112760      -0.82329410       1.53953528
H       -0.86508405      -0.69200242       0.77571994
H       -0.70628524       0.26233494       0.66579223
H        0.03238440       0.17337994       1.37274206
