11
Properties=species:S:1:pos:R:3 pbc="F F F"
H        0.00000000       0.00000000       0.00000000
H        0.54628479      -0.64623839      -0.66938484
H        0.67972535       0.12836373      -1.24405527
H        0.03154904       0.71418458      -0.70553386
H        0.82012290       0.34709048       0.39368460
H        1.41860819      -0.23873037      -0.19957182
H        1.53981900       0.46071592      -0.79338360
H        1.01023483       1.07061601      -0.24967086
H        0.26071095       0.77235121      -0.69418180
H        0.92838544       1.22642148       0.32943946
H        1.51965451       0.84796727      -0.34527105
