21
Properties=species:S:1:pos:R:3 pbc="F F F"
H        0.00000000       0.00000000       0.00000000
H       -0.49101692      -0.19475858      -0.87994057
H        0.07288510       0.55264992      -1.30032015
H       -0.64284182       0.68549418       0.25478023
H       -1.07563353       0.56110728      -0.66746867
H        0.55881035       0.63587439      -0.48109838
H       -0.59755206       1.30005836      -1.08767378
H       -0.15081432       1.45972729      -0.17758858
H        0.56636894       0.70012563      -0.44736755
H        0.66225028       1.78120887       0.10221234
H        0.66225028       1.78120887       0.10221234
H        0.66225028       1.78120887       0.10221234
H        0.66225028       1.78120887       0.10221234
H        0.66225028       1.78120887       0.10221234
H        0.66225028       1.78120887       0.10221234
H        0.68265754       1.78120887       0.09822282
H        1.92969942       1.75882912      -0.13403797
H        1.92969942       1.75882912      -0.13403797
H        1.92969942       1.75882912      -0.13403797
H        1.92969942       1.75882912      -0.13403797
H        1.92969942       1.75882912      -0.13403797
