8
Properties=species:S:1:pos:R:3 pbc="F F F"
H        0.00000000       0.00000000       0.00000000
H       -0.01035373      -0.77460212      -0.58986890
H       -0.77633488      -0.49145550      -1.12011576
H        0.51494861      -0.33482566      -1.28176117
H       -0.20910865      -0.11300129      -1.81516099
H       -0.77537459       0.31530851      -0.49742922
H        0.59252316       0.49504808      -0.67614168
H       -0.24858102       0.68160886      -1.25382555
