8
Properties=species:S:1:pos:R:3 pbc="F F F"
H        0.00000000       0.00000000       0.00000000
H       -0.96783787       0.05067664       0.09371616
H       -0.05350751      -0.97187352       0.02568529
H       -0.14333346      -1.02528942      -0.99529564
H       -0.12575266      -0.01781246      -1.01842666
H       -1.06711590      -0.88291854       0.15988344
H       -1.18641973      -0.89981753      -0.80631632
H       -1.12391853       0.12458962      -0.80906045
