21
Properties=species:S:1:pos:R:3 pbc="F F F"
H        0.00000000       0.00000000       0.00000000
H        0.50421435      -0.31530851      -0.77097952
H        0.62283462      -1.30572534      -0.35972396
H        0.74434412       0.25064358       0.57549155
H        0.11743104      -1.08788681       0.44350359
H        0.04563584      -0.13222152       0.07625285
H       -0.29921207      -1.48316002       0.25242504
H       -0.29921207      -1.48316002       0.25242504
H       -0.29921207      -1.48316002       0.25242504
H       -0.04426154      -2.25452852       0.87957323
H        0.14735582      -1.87539303      -0.38073006
H        0.64011312      -1.67759609       1.09664035
H        0.34989971      -0.84245861       0.47821587
H       -0.16578789      -0.96301687      -0.43007347
H        1.50985241      -0.50895810       0.54188174
H        0.90968817      -1.00465274       0.15685597
H        0.86171174      -1.00465274       0.24463508
H        0.14821225      -0.98227298       1.19723845
H        0.14821225      -0.98227298       1.19723845
H        0.14821225      -0.98227298       1.19723845
H        0.14821225      -0.98227298       1.19723845
