21
Properties=species:S:1:pos:R:3 pbc="F F F"
H        0.00000000       0.00000000       0.00000000
H        0.05739931      -0.52769721       0.81627315
H        0.38303158       0.83756196       0.45288035
H        0.27557820       0.34899217       1.30324090
H       -0.64619380       0.59963572       1.49185419
H       -0.98806047      -0.23792624       1.00714707
H       -0.99164724       0.22961354       0.13129057
H       -0.92902946      -0.29808366       0.98228443
H       -0.10196620      -1.11341405       0.67382979
H       -0.10196620      -1.11341405       0.67382979
H       -0.10196620      -1.11341405       0.67382979
H       -0.10196620      -1.11341405       0.67382979
H       -0.10196620      -1.11341405       0.67382979
H       -0.10196620      -1.11341405       0.67382979
H       -0.10196620      -1.11341405       0.67382979
H       -0.10196620      -1.11341405       0.67382979
H       -0.13093901      -1.14574289       0.68472826
H       -0.92349452      -2.05246592       0.99942958
H       -0.92349452      -2.05246592       0.99942958
H       -0.92349452      -2.05246592       0.99942958
H       -0.92349452      -2.05246592       0.99942958
