8
Properties=species:S:1:pos:R:3 pbc="F F F"
H        0.00000000       0.00000000       0.00000000
H        0.35866648      -0.83756196      -0.47241095
H       -0.49022913      -1.36351347      -0.23560901
H       -0.79291838      -0.46966103       0.31426069
H       -0.11222833      -0.49047148      -1.25077283
H       -0.93055791      -0.93024790      -0.95923507
H       -1.24180996      -0.15435252      -0.49018809
H       -0.44340205       0.32600093      -0.72444528
