8
Properties=species:S:1:pos:R:3 pbc="F F F"
H        0.00000000       0.00000000       0.00000000
H       -0.61304885      -0.15966894      -0.80746567
H       -0.57119292       0.74740851       0.41041824
H       -0.02511436       0.53714782      -1.27874410
H       -1.15563214       0.62940043      -0.35936478
H       -0.60048842       1.22264194      -0.89520371
H        0.63675171       0.59056371      -0.49618161
H        0.00485402       1.27605784      -0.06814194
