8
Properties=species:S:1:pos:R:3 pbc="F F F"
H        0.00000000       0.00000000       0.00000000
H        0.68725604      -0.43977645       0.53135377
H        1.07314706       0.45401433       0.51441115
H        0.37315118       0.83246851      -0.04669416
H        1.62467837       0.25925577      -0.32891935
H        0.88051242       0.55770755      -0.96959668
H        1.18121719      -0.60558861      -0.27020666
H        0.54749936      -0.22961354      -0.83716542
