21
Properties=species:S:1:pos:R:3 pbc="F F F"
H        0.00000000       0.00000000       0.00000000
H       -0.53245163       0.67024595      -0.56620628
H       -1.38936567       0.11402464      -0.66438967
H       -0.29743883       0.11446714      -1.33036578
H       -1.04173505      -0.41367257      -1.40516591
H       -0.68249363      -1.07475519      -0.78712356
H        0.22891110      -0.61120713      -0.69887191
H       -1.07083917      -0.54880363       0.00400645
H       -0.86248738      -0.55622131      -0.00756871
H        0.58853406      -0.63242263      -0.08845572
H        0.96291113      -1.05179083       0.83246738
H        0.22692502      -1.68766522       0.87773418
H       -0.13346219      -1.45805168      -0.05539095
H       -0.35361665      -1.02658260       1.29486978
H        0.37297916      -0.30403471       1.23736465
H        0.03400314      -0.05339113       0.35967797
H       -0.67144787      -0.69423044       0.37734634
H       -0.13398726      -0.69423044       0.34902155
H        0.21600866      -0.52642387       0.08315423
H        0.20056093      -0.52642387       0.21797676
H       -1.99001610      -0.56478918       0.06054041
