8
Properties=species:S:1:pos:R:3 pbc="F F F"
H        0.00000000       0.00000000       0.00000000
H        0.15274149      -0.33235219      -0.95892441
H        0.30630979       0.87984765      -0.28302526
H        0.43219042       0.64261413      -1.32699537
H       -0.94537377       0.18477097      -0.14208822
H       -0.79009312      -0.11451370      -1.06695247
H       -0.67633247       1.09142792      -0.37371486
H       -0.56216723       0.80828130      -1.29829860
