21
Properties=species:S:1:pos:R:3 pbc="F F F"
H        0.00000000       0.00000000       0.00000000
H        0.65604281      -0.46966103       0.54505712
H       -0.06164205      -1.02588236       1.02346087
H        0.87915611      -1.07956111      -0.18041050
H        0.19188868      -0.63587439      -0.71197146
H        0.18398297      -1.72242868       0.21554339
H       -0.54270023      -1.35657656      -0.41008246
H       -0.69942653      -0.61471456       0.43156976
H       -0.79125768      -0.71370900       0.35035449
H        0.00297892       0.05862474       1.01022661
H        0.00297892       0.05862474       1.01022661
H        0.00297892       0.05862474       1.01022661
H        0.00297892       0.05862474       1.01022661
H        0.00297892       0.05862474       1.01022661
H        0.00297892       0.05862474       1.01022661
H        0.00297892       0.05862474       1.01022661
H       -0.41161239      -0.60042673       0.46055952
H        0.88701153      -0.89511663       1.52053618
H        0.87236559      -0.93236554       1.55544925
H        0.01709170       0.32955861       0.38582408
H       -0.57060021      -0.81092590      -0.42537275
