21
Properties=species:S:1:pos:R:3 pbc="F F F"
H        0.00000000       0.00000000       0.00000000
H       -0.92501378       0.29845181       0.32954502
H       -0.22925681      -0.90665692       0.27106357
H       -1.09704828      -0.59134841       0.58022261
H        0.18526685      -0.74698800       1.19626617
H       -0.57852548       0.49321038       1.27576852
H       -0.81471527      -0.46696150       1.55906868
H        0.03823924      -0.70405674       1.30491865
H       -1.33030105      -0.30216578       0.87997460
H       -0.92629564      -0.43419653       1.54464805
H        0.84360909      -0.90466642       0.31806642
H        0.84360909      -0.90466642       0.31806642
H        0.84360909      -0.90466642       0.31806642
H        0.84360909      -0.90466642       0.31806642
H        0.84360909      -0.90466642       0.31806642
H        0.84360909      -0.90466642       0.31806642
H        0.84360909      -0.90466642       0.31806642
H        0.84360909      -0.90466642       0.31806642
H        0.83872181      -0.94875342       0.32405502
H        0.71260947      -2.17663074       0.48446372
H        0.71260947      -2.17663074       0.48446372
