8
Properties=species:S:1:pos:R:3 pbc="F F F"
H        0.00000000       0.00000000       0.00000000
H        0.50912565      -0.18477097       0.80914259
H       -0.26772654       0.11368084       1.40976810
H       -0.73640728       0.26516163       0.56985575
H       -0.31950384       1.14500928       0.58083379
H        0.46931601       0.91159266       0.04544405
H        0.98047328       0.72682166       0.82155430
H        0.19191301       1.05917382       1.38815713
