8
Properties=species:S:1:pos:R:3 pbc="F F F"
H        0.00000000       0.00000000       0.00000000
H       -0.43620220       0.58582085      -0.72101700
H       -1.34996605       0.50142765      -0.39547989
H       -0.99180830      -0.10847241       0.27370313
H        0.11346237       0.79439902       0.63982838
H       -1.17010450       1.28716481       0.32173297
H       -0.22406024       1.34058070      -0.07256520
H       -0.85027957       0.66289610       0.93573344
