8
Properties=species:S:1:pos:R:3 pbc="F F F"
H        0.00000000       0.00000000       0.00000000
H       -0.33100656      -0.58582085      -0.77496612
H        0.03407410       0.05704671      -1.48683786
H        0.46615964       0.52059484      -0.67952806
H        1.30198002       0.02161512      -0.65751892
H        0.53121507      -1.14204216      -0.75226182
H        0.91534531      -0.46890485      -1.49457157
H        0.87591493      -0.62125242       0.01961756
