8
Properties=species:S:1:pos:R:3 pbc="F F F"
H        0.00000000       0.00000000       0.00000000
H       -0.47398776      -0.23709527       0.75329894
H       -0.42038047       0.74222386       1.05559707
H       -1.23483682      -0.01925677       0.18609881
H        0.15519583       0.98361248       0.17550009
H       -0.70517880       1.21322608      -0.33475173
H       -0.80536312       0.24515063      -0.66050768
H       -1.23579609       1.00641572       0.49112928
