8
Properties=species:S:1:pos:R:3 pbc="F F F"
H        0.00000000       0.00000000       0.00000000
H        0.59380746      -0.49897972      -0.58861941
H        0.19820765      -0.06749013      -1.43161488
H       -0.40172338       0.39891118      -0.85604447
H       -0.47126243      -0.83885860      -1.53223515
H       -0.07878143      -1.27034819      -0.66568321
H       -1.10777247      -0.36919758      -0.96449023
H       -0.72702801      -0.80068719      -0.11468178
