21
Properties=species:S:1:pos:R:3 pbc="F F F"
H        0.00000000       0.00000000       0.00000000
H       -0.90169489       0.25064358      -0.26867270
H        0.34122458       0.43977645      -0.79888880
H       -1.04558158      -0.67676330      -0.68404830
H       -0.64229023       0.63453501      -1.01818693
H       -0.11136776      -0.94095516      -0.35122547
H        0.27004072      -0.60860300      -1.24419439
H        0.42336816       0.33350068      -0.86702710
H        1.06225383      -0.80289137      -1.54219687
H        1.19761860      -0.47456256      -2.39202881
H        0.22022754      -0.17611074      -2.29738760
H        1.13862646      -0.50462657      -2.41026545
H        2.23524213       0.07778007      -2.06244540
H        2.23524213       0.07778007      -2.06244540
H        2.23524213       0.07778007      -2.06244540
H        2.23524213       0.07778007      -2.06244540
H        2.23524213       0.07778007      -2.06244540
H        2.23524213       0.07778007      -2.06244540
H        2.23524213       0.07778007      -2.06244540
H        2.23524213       0.07778007      -2.06244540
H        2.23524213       0.07778007      -2.06244540
