8
Properties=species:S:1:pos:R:3 pbc="F F F"
H        0.00000000       0.00000000       0.00000000
H        0.58115071      -0.52769721      -0.57607329
H        0.09859633      -1.35942817      -0.42301875
H        1.08753467      -0.72245580       0.29511458
H        0.53261673      -1.51706600       0.38850462
H        0.55569869      -0.25064358       0.75923491
H       -0.55744648      -0.88976717       0.12203830
H       -0.09953070      -0.90235144       0.91370887
