8
Properties=species:S:1:pos:R:3 pbc="F F F"
H        0.00000000       0.00000000       0.00000000
H       -0.37664786      -0.36585209      -0.88182342
H       -0.53625453       0.77460212      -0.24593407
H       -1.34562182       0.36524016       0.10819614
H       -0.82012278      -0.34709048       0.39368474
H       -1.03701103      -0.71294260      -0.54035789
H       -0.85946977       0.39614791      -1.08281231
H       -1.53065681       0.10071820      -0.74610269
