8
Properties=species:S:1:pos:R:3 pbc="F F F"
H        0.00000000       0.00000000       0.00000000
H        0.63883960       0.60990006      -0.40983751
H        1.05519724      -0.26678932      -0.74358284
H       -0.55706412       0.11800810      -0.78981930
H        0.07921535       0.69885504      -1.26554286
H        0.41330290      -0.79461014      -0.38188517
H        0.46588719      -0.17783432      -1.57912135
H       -0.25179768      -0.73405564      -1.10071754
