21
Properties=species:S:1:pos:R:3 pbc="F F F"
H        0.00000000       0.00000000       0.00000000
H        0.21426670       0.05341591       1.00227761
H       -0.73158455       0.35186774       1.26612568
H       -0.52472371       1.28096545       1.06107211
H       -0.93658578       0.18477097       0.19164450
H        0.41635144       0.98251367       0.78066528
H       -1.01672816       0.26747453       0.33896238
H       -1.47946262       0.76717758       1.20595682
H       -1.47946262       0.76717758       1.20595682
H       -1.47946262       0.76717758       1.20595682
H       -1.47946262       0.76717758       1.20595682
H       -1.47946262       0.76717758       1.20595682
H       -1.47946262       0.76717758       1.20595682
H       -1.47946262       0.76717758       1.20595682
H       -1.09825945       0.37934136       0.91188025
H       -1.58506966       1.70310247       0.74512708
H       -1.08948231       0.22864389       0.57485265
H       -0.60005307       0.56057727      -0.57101887
H       -0.56014085       0.56057727      -0.55313677
H       -0.56014085       0.56057727      -0.55313677
H       -0.10630387      -0.39333642      -0.29127467
