21
Properties=species:S:1:pos:R:3 pbc="F F F"
H        0.00000000       0.00000000       0.00000000
H       -0.51304650      -0.77136850      -0.44169885
H       -0.18674591      -1.45686269       0.16796207
H        0.40356168      -0.75224513       0.73292071
H        0.35556442      -0.69681674       0.66433752
H       -0.16161093       0.02008861      -0.13126838
H        1.00954819      -1.35762763       1.55785656
H        1.00954819      -1.35762763       1.55785656
H        1.00954819      -1.35762763       1.55785656
H        1.00954819      -1.35762763       1.55785656
H        1.00954819      -1.35762763       1.55785656
H        1.00954819      -1.35762763       1.55785656
H        1.00954819      -1.35762763       1.55785656
H        1.00954819      -1.35762763       1.55785656
H        1.00954819      -1.35762763       1.55785656
H        1.00954819      -1.35762763       1.55785656
H        1.00954819      -1.35762763       1.55785656
H        1.00954819      -1.35762763       1.55785656
H        1.00954819      -1.35762763       1.55785656
H        1.00954819      -1.35762763       1.55785656
H        1.00954819      -1.35762763       1.55785656
