8
Properties=species:S:1:pos:R:3 pbc="F F F"
H        0.00000000       0.00000000       0.00000000
H       -0.32983679       0.96807545      -0.08579928
H        0.18453822      -0.15148079      -0.94395977
H        1.09723270       0.13166583      -0.75720400
H       -0.14529857       0.81659466      -1.02975905
H        0.92021155       0.29133475       0.24104100
H        0.79054427       1.03443313      -0.87226135
H        0.63850814       1.26652730       0.07716837
