21
Properties=species:S:1:pos:R:3 pbc="F F F"
H        0.00000000       0.00000000       0.00000000
H        0.54069358       0.79439902       0.36042264
H       -0.32850343       1.02401257       0.85549635
H       -0.74363983       0.67692208       0.04602069
H        0.07533288       1.28944707      -0.40879163
H       -0.62002861       0.75982070      -0.09241700
H        0.66162854       0.28314662      -0.65584797
H       -0.52918798       0.89916730       1.46947098
H        0.62321115       0.34709048      -0.66271931
H       -0.61928850      -0.49787262      -0.87804270
H       -0.61928850      -0.49787262      -0.87804270
H       -0.61928850      -0.49787262      -0.87804270
H       -0.61928850      -0.49787262      -0.87804270
H       -0.61928850      -0.49787262      -0.87804270
H       -0.61928850      -0.49787262      -0.87804270
H       -0.61928850      -0.49787262      -0.87804270
H       -0.61928850      -0.49787262      -0.87804270
H       -0.61928850      -0.49787262      -0.87804270
H       -0.61928850      -0.49787262      -0.87804270
H       -0.61928850      -0.49787262      -0.87804270
H       -0.61928850      -0.49787262      -0.87804270
