21
Properties=species:S:1:pos:R:3 pbc="F F F"
H        0.00000000       0.00000000       0.00000000
H        0.15274149      -0.33235219      -0.95892441
H        0.38460100       0.70907992      -0.54529685
H       -0.31975558       0.60820889      -1.19602907
H       -0.89626163       0.37845421      -0.03935063
H       -0.55857974       0.40936196      -0.68445045
H       -0.09481275       0.30774638       0.09552924
H       -0.72927791       0.88594908      -2.15481949
H       -0.29457352       0.57064056      -1.34261656
H        0.05861306      -0.30905896       0.37967312
H        0.01169339      -0.30905896       0.37554514
H       -0.09209470       0.07700977      -0.11007875
H        1.71000075       0.63922834      -0.74450231
H        1.71000075       0.63922834      -0.74450231
H        1.71000075       0.63922834      -0.74450231
H        1.71000075       0.63922834      -0.74450231
H        1.71000075       0.63922834      -0.74450231
H        1.71000075       0.63922834      -0.74450231
H        1.71000075       0.63922834      -0.74450231
H        1.71000075       0.63922834      -0.74450231
H        1.71000075       0.63922834      -0.74450231
