6
Properties=species:S:1:pos:R:3 pbc="F F F"
H        0.00000000       0.00000000       0.00000000
H       -0.51304650      -0.77136850      -0.44169885
H       -0.25949803      -1.40724289       0.25071561
H        0.40709952      -0.62150574       0.57070327
H        0.42325228      -0.89468008      -0.27153084
H       -0.58010501      -0.58659756       0.51193827
