21
Properties=species:S:1:pos:R:3 pbc="F F F"
H        0.00000000       0.00000000       0.00000000
H        0.11786898      -0.15148079      -0.95457917
H        0.40359202      -0.63587439      -0.61712086
H        0.14058861      -0.41803589       0.29471052
H        0.29696357      -0.83740407      -0.68702501
H        1.08622813       0.94088554      -0.60959172
H        2.02366590       0.54197437      -0.48547822
H        1.07352448       0.94088554      -0.57582021
H        2.50725293       0.15169123       0.70408839
H        2.50725293       0.15169123       0.70408839
H        2.50725293       0.15169123       0.70408839
H        2.50725293       0.15169123       0.70408839
H        2.50725293       0.15169123       0.70408839
H        2.50725293       0.15169123       0.70408839
H        2.50725293       0.15169123       0.70408839
H        2.50725293       0.15169123       0.70408839
H        2.50725293       0.15169123       0.70408839
H        2.50725293       0.15169123       0.70408839
H        2.50725293       0.15169123       0.70408839
H        2.50725293       0.15169123       0.70408839
H        2.50725293       0.15169123       0.70408839
