21
Properties=species:S:1:pos:R:3 pbc="F F F"
H        0.00000000       0.00000000       0.00000000
H       -0.56912082      -0.52595156       0.67290437
H       -1.00111723       0.19475858      -0.11470591
H        0.07013830       0.70907992       0.66358662
H       -0.78267956       0.65566403       1.23206913
H       -1.26897144       0.31276667       0.81394315
H       -0.64954466       0.28371358       0.84540224
H       -0.80538386       0.26419187       0.57869107
H       -1.45641005      -0.96577674       1.22039175
H       -1.46886611      -0.92932701       1.22807765
H       -1.46886611      -0.92932701       1.22807765
H       -1.45641005      -0.96577674       1.22039175
H       -1.43664980      -0.96577674       1.25119328
H       -1.46886611      -0.92932701       1.22807765
H       -1.46886611      -0.92932701       1.22807765
H       -1.45641005      -0.96577674       1.22039175
H       -1.46886611      -0.92932701       1.22807765
H       -1.45641005      -0.96577674       1.22039175
H       -1.46886611      -0.92932701       1.22807765
H       -1.45641005      -0.96577674       1.22039175
H       -1.45641005      -0.96577674       1.22039175
