6
Properties=species:S:1:pos:R:3 pbc="F F F"
H        0.00000000       0.00000000       0.00000000
H       -0.26684549      -0.92909771       0.11675546
H        0.71843719      -0.66490585       0.00386402
H        0.51038694      -0.10912704      -0.76807237
H        0.26467937      -1.09639549      -0.80930543
H       -0.41194409      -0.40336102      -0.62546086
