21
Properties=species:S:1:pos:R:3 pbc="F F F"
H        0.00000000       0.00000000       0.00000000
H        0.21426670       0.05341591       1.00227761
H       -0.77711868       0.31760776       1.02838302
H        1.11664450       0.17780280       1.47510529
H        0.32352042       0.25064358       0.88350052
H       -0.19619286       0.57332003       0.85528785
H        0.09559087       0.42964485      -0.48897153
H        0.74112380      -0.33142740       1.65536702
H        0.16243775       0.47910807      -0.42058879
H        0.84454697      -0.64590514      -0.38732135
H        0.84454697      -0.64590514      -0.38732135
H        0.84454697      -0.64590514      -0.38732135
H        0.84454697      -0.64590514      -0.38732135
H        0.84454697      -0.64590514      -0.38732135
H        0.84454697      -0.64590514      -0.38732135
H        0.84454697      -0.64590514      -0.38732135
H        0.84454697      -0.64590514      -0.38732135
H        0.84454697      -0.64590514      -0.38732135
H        0.84454697      -0.64590514      -0.38732135
H        0.84454697      -0.64590514      -0.38732135
H        0.84454697      -0.64590514      -0.38732135
