6
Properties=species:S:1:pos:R:3 pbc="F F F"
H        0.00000000       0.00000000       0.00000000
H        0.63848275      -0.52769721      -0.51179713
H        0.26607460       0.08895500      -0.98722601
H       -0.63996631      -0.33235219      -0.73028016
H       -0.20181689      -0.91554296      -0.08531928
H        0.03067571      -0.91554296      -1.12800956
