21
Properties=species:S:1:pos:R:3 pbc="F F F"
H        0.00000000       0.00000000       0.00000000
H       -0.33100656      -0.58582085      -0.77496612
H        0.14979294       0.18554765      -1.25156498
H        0.62819439       0.02587871      -0.35771835
H        0.74630576      -0.99173778      -0.29583037
H        0.55555391      -1.08086896      -0.62576240
H        0.79778540       0.08895500      -0.63949150
H        0.53564596      -0.60089296      -0.72166252
H       -1.13920927      -0.97043461      -1.37746751
H       -0.44916838      -0.59198040      -0.80416393
H       -0.55853486       0.98940516      -2.05985403
H       -0.55853486       0.98940516      -2.05985403
H       -0.55853486       0.98940516      -2.05985403
H       -0.55853486       0.98940516      -2.05985403
H       -0.55853486       0.98940516      -2.05985403
H       -0.55853486       0.98940516      -2.05985403
H       -0.55853486       0.98940516      -2.05985403
H       -0.55853486       0.98940516      -2.05985403
H       -0.55853486       0.98940516      -2.05985403
H       -0.55853486       0.98940516      -2.05985403
H       -0.55853486       0.98940516      -2.05985403
