21
Properties=species:S:1:pos:R:3 pbc="F F F"
H        0.00000000       0.00000000       0.00000000
H        0.87909138       0.39891118       0.34841394
H        0.81527871       0.05182070       1.25589228
H        1.60371470       0.92486274      -0.15320325
H        0.96900541       0.01689900       0.09382916
H        1.19453192      -0.00182692       1.14877677
H        0.78914481       1.37847996       0.38978344
H        1.73948097       1.08002818       0.14257576
H        0.33233517       0.11800810       0.90757269
H        0.34750479       2.13808155      -0.23638475
H        1.09556663       1.64303350       0.26226813
H        1.26868367       2.00731587      -0.78269702
H        2.04957843       2.08714724      -0.30085871
H        1.39938879       1.47243261       0.20183727
H        1.80063033       1.68997741      -1.00440502
H        1.29246020       1.51519406      -0.25637317
H        1.39987493       1.44427967       0.16597164
H        1.64268112       2.09856558       0.21598718
H        2.93686771       1.64732206       0.24662861
H        2.93686771       1.64732206       0.24662861
H        2.93686771       1.64732206       0.24662861
