21
Properties=species:S:1:pos:R:3 pbc="F F F"
H        0.00000000       0.00000000       0.00000000
H        0.05739931      -0.52769721       0.81627315
H        0.61332637       0.61471456       0.54706556
H       -0.50828981       0.29845181      -0.84017366
H       -0.59794110       0.76811284       0.00802559
H       -0.07102823       1.20053542       1.03879368
H       -0.57610518       0.15779698       1.09345651
H       -0.31161386       0.86535811       0.37465847
H        0.02524555       0.85467315      -0.16247034
H        0.86173630      -1.04813242       1.31257606
H        0.35566634      -0.21640140       1.32590199
H        0.48361173      -0.27678472       1.18529844
H        0.68940490      -0.73769587       0.34512353
H        0.11014272       0.30585533       0.56970036
H       -1.17502475       0.32565409       1.97507238
H       -0.38115984       0.14960884       1.18814325
H       -0.29387110       0.25843173       0.69805110
H        0.04304793       0.39189547       0.74342418
H       -0.22647712       0.18345881       0.53487700
H        0.06829169       0.28780425       0.83501250
H       -0.18345906       0.12129372       0.38463616
