21
Properties=species:S:1:pos:R:3 pbc="F F F"
H        0.00000000       0.00000000       0.00000000
H        0.88292891      -0.28314662      -0.29719594
H        0.88292891      -0.68205780       0.64842224
H        0.07810772      -0.86484438       0.44045913
H        0.46003842      -1.35989249      -0.37340826
H        0.70942509      -0.50727445      -0.23909402
H        0.33587581      -1.36755204       1.07137787
H        0.86512488      -1.27859700       0.19655997
H        0.85906154       0.43977645      -0.12911558
H        1.22588027       0.52165306       0.16230229
H        1.09414124      -0.72177732       1.38069379
H        0.73005486      -0.13510449       0.45046836
H        1.18121529      -0.47842196       0.42081949
H       -0.85505122       0.41936818      -0.50709474
H       -0.85505122       0.41936818      -0.50709474
H       -0.84201741       0.45361727      -0.49936494
H       -0.51020032       0.25571230      -0.32731086
H       -0.95128667       0.27443820       0.65717864
H       -0.95128667       0.27443820       0.65717864
H       -0.53259587       1.75518274      -0.29434440
H       -0.53259587       1.75518274      -0.29434440
