21
Properties=species:S:1:pos:R:3 pbc="F F F"
H        0.00000000       0.00000000       0.00000000
H       -0.41358426      -0.01689900      -0.88131911
H        0.63349670       0.55622131      -0.58534068
H       -0.25267965       1.01976943      -0.81585860
H       -0.35086691       0.89468008       0.36022758
H       -0.36522779       1.42237735      -0.45793515
H       -0.12155530       0.73501116      -0.62731779
H       -0.19617932       0.27881706       1.23253012
H       -0.38220942       0.93989968       0.54229575
H        0.20233022      -0.74370861       0.95666373
H        0.00941071      -1.21336961       0.12584400
H       -0.15772587      -1.76914835       0.90765989
H       -1.01749611      -1.39069414       0.65147924
H       -0.75545001      -0.55896312       0.21833232
H       -0.61151493      -0.48907006       0.21976104
H        0.66182721      -1.13363445       0.09719951
H        0.66182721      -1.13363445       0.09719951
H        0.65866947      -1.11101770       0.09733815
H       -0.09770343      -0.56440818       0.14002553
H       -0.09713975      -0.56440818       0.14377594
H       -0.14205797      -0.57346290       0.14589792
