7
Properties=species:S:1:pos:R:3 pbc="F F F"
H        0.00000000       0.00000000       0.00000000
H        0.73469222      -0.22961354      -0.67884368
H        0.73099792      -0.63587439       0.09678159
H        0.77008104       0.55577880       0.21481623
H        1.56020963      -0.14522034      -0.16947174
H        1.02809930       0.25791639       0.34362105
H        0.82129967       0.35799721      -0.21364185
