6
Properties=species:S:1:pos:R:3 pbc="F F F"
H        0.00000000       0.00000000       0.00000000
H       -0.27385142       0.28314662      -0.89044607
H       -0.34667140      -0.59670103      -0.47980481
H        0.35039830      -0.84879911      -0.32376233
H        0.07382315      -0.59815550      -1.22306478
H        0.64218229      -0.01706809      -0.73746091
