6
Properties=species:S:1:pos:R:3 pbc="F F F"
H        0.00000000       0.00000000       0.00000000
H       -0.04850490       0.68549418       0.68978679
H       -0.68941748       0.34709048      -0.59354252
H       -0.73875445       1.09449899       0.10807729
H       -0.65551817       0.08857596       0.29385787
H       -0.05886251       0.95566529      -0.36954415
