7
Properties=species:S:1:pos:R:3 pbc="F F F"
H        0.00000000       0.00000000       0.00000000
H        0.80713278      -0.08439321       0.53802919
H        0.79106289      -0.54794133      -0.37749732
H        0.53281271       0.58582085      -0.65287697
H        1.41172671       0.20736665      -0.47303337
H        1.25696397       0.53032136      -0.14979470
H        0.73167181      -0.21709716      -0.24776521
