21
Properties=species:S:1:pos:R:3 pbc="F F F"
H        0.00000000       0.00000000       0.00000000
H        0.12256700       0.83228827       0.37498182
H       -0.24331933       0.22961354       0.97025621
H        0.97107506       0.12438690       0.30800152
H        0.56917948       0.78583485       1.25971687
H        0.96366292       0.36262724       0.51653409
H       -1.18151498       0.68323082       0.69070756
H       -0.15662968       0.73664671       0.68171358
H       -0.21014285       0.62981492       0.36374143
H       -0.17228258       0.17213929       0.71728301
H       -2.03518796       1.39203358       0.46864459
H       -2.03518796       1.39203358       0.46864459
H       -2.03518796       1.39203358       0.46864459
H       -2.03518796       1.39203358       0.46864459
H       -2.03518796       1.39203358       0.46864459
H       -2.03518796       1.39203358       0.46864459
H       -2.03518796       1.39203358       0.46864459
H       -2.03518796       1.39203358       0.46864459
H       -2.03518796       1.39203358       0.46864459
H       -2.03518796       1.39203358       0.46864459
H       -2.03518796       1.39203358       0.46864459
