7
Properties=species:S:1:pos:R:3 pbc="F F F"
H        0.00000000       0.00000000       0.00000000
H        0.85755634      -0.19475858       0.52914101
H        0.02194848      -0.87984765      -0.41646999
H        0.85735518      -0.29402679      -0.30586505
H        0.83553165      -1.11049914       0.31560135
H        0.14602017      -0.85584122       0.59803939
H        0.72906309      -1.13238382       0.01984346
