21
Properties=species:S:1:pos:R:3 pbc="F F F"
H        0.00000000       0.00000000       0.00000000
H        0.79402828      -0.31375703       0.65969908
H        0.98013806      -0.22936383      -0.29229981
H        0.12125576      -1.03630495       0.37929663
H        0.15677375      -0.54467237      -0.70547372
H       -0.22502539      -0.70434129       0.23370630
H        0.55671281      -1.15677071      -0.17418408
H        1.26312995       0.10561115       1.53617001
H        0.50880063      -0.14503244       0.97383034
H        0.26556331       0.27346826       1.16092074
H        0.34440327       0.62604630       1.75801611
H        0.37762290      -0.04470491       1.12767720
H        1.85970354      -0.08570413       1.33536196
H        1.85305119      -0.10743515       1.33760107
H        1.57291353      -0.07043411       2.61018705
H        1.57291353      -0.07043411       2.61018705
H        1.57291353      -0.07043411       2.61018705
H        1.57291353      -0.07043411       2.61018705
H        1.57291353      -0.07043411       2.61018705
H        1.57291353      -0.07043411       2.61018705
H        1.57291353      -0.07043411       2.61018705
