7
Properties=species:S:1:pos:R:3 pbc="F F F"
H        0.00000000       0.00000000       0.00000000
H        1.00909960       0.15966894       0.09771150
H        0.52831984      -0.51057702       0.70840383
H        0.34454840       0.36927062       1.08277941
H        0.38217041       1.03035331       0.36890596
H        0.41689628       0.49534601       0.53802925
H        0.45018607       0.26402014       0.22725731
