21
Properties=species:S:1:pos:R:3 pbc="F F F"
H        0.00000000       0.00000000       0.00000000
H       -0.90169489       0.25064358      -0.26867270
H       -0.13152106       0.49897972      -0.82570112
H       -0.70791817      -0.73873925      -0.46075642
H        0.23312914      -0.78941590      -0.70554781
H        0.05638617      -0.50694335      -0.90401828
H       -0.48617044      -1.07627952       0.30804110
H       -0.22587502      -0.18159944      -0.12221208
H       -1.37034953      -2.16864586      -0.21632814
H       -2.10546494      -2.25303912      -0.84921360
H       -1.24563301      -1.69681787      -0.91726345
H       -1.59941292      -2.88156796      -0.75262070
H       -1.16194844      -2.27166796      -1.37286878
H       -1.37034953      -2.16864586      -0.21632814
H       -1.35140264      -2.16864586      -0.24703479
H       -2.14004183      -2.28728008      -1.50530624
H       -2.61913991      -2.26263046      -0.64562660
H       -2.14004183      -2.28728008      -1.50530624
H       -2.61913991      -2.26263046      -0.64562660
H       -1.37263072      -3.07288313      -1.33981204
H       -1.37263072      -3.07288313      -1.33981204
