21
Properties=species:S:1:pos:R:3 pbc="F F F"
H        0.00000000       0.00000000       0.00000000
H       -0.01035373      -0.77460212      -0.58986890
H       -0.22329821      -0.24690491      -1.37996459
H       -0.11623963      -1.74267757      -0.26592141
H       -0.35944217      -0.83009571      -0.61223143
H        1.45922065       0.33558905       0.08974960
H        1.44671655       0.38612661       0.08898054
H        1.45922065       0.33558905       0.08974960
H        1.45517206       0.33558905       0.14090487
H        0.73819721      -0.09542412      -1.35464621
H        0.19827497      -0.25509304      -0.49655896
H       -1.59335697      -1.97603989      -0.38282514
H       -0.72965300      -1.99385238      -0.93692082
H       -0.91134280      -1.30579400      -0.75558639
H       -0.46252179       0.05793187      -0.26094675
H       -0.46458942       0.01803380      -0.25127494
H       -0.26976547       0.01507208       0.82532084
H       -0.47496346       0.46174952       0.38805827
H       -0.43876022       1.11663890       0.33672845
H       -0.44058394       1.11663890       0.33548954
H       -0.42327651       1.11406791       0.31997976
