21
Properties=species:S:1:pos:R:3 pbc="F F F"
H        0.00000000       0.00000000       0.00000000
H       -0.26684549      -0.92909771       0.11675546
H        0.62943602      -0.59674549      -0.25680232
H        1.20291328       0.17785662      -0.11832394
H        0.27911553       0.24081647       0.22183043
H       -0.04024021      -0.17206073       0.47689441
H        0.32708699       0.36262760       0.26488471
H        1.05177212      -1.21742702      -0.47218186
H        1.04952145      -1.22993803      -0.41742313
H        1.05917335      -1.24985838      -0.30764821
H        0.34622380      -2.04276657      -0.53754008
H        0.14523417      -0.55340844      -0.13988149
H       -0.40297699      -1.23058462      -0.00750427
H       -0.40297699      -1.23058462      -0.00750427
H       -0.40297699      -1.23058462      -0.00750427
H       -0.39359200      -1.23058462       0.02857438
H       -0.39739776      -1.19334197      -0.60243702
H       -0.35537988      -1.19334197      -0.70845312
H       -0.32974052      -1.07748461      -0.87214673
H       -0.13141310      -0.81458402      -0.82400244
H       -0.20330268      -0.81458402      -0.71194351
