6
Properties=species:S:1:pos:R:3 pbc="F F F"
H        0.00000000       0.00000000       0.00000000
H       -0.27385142       0.28314662      -0.89044607
H       -0.33299938      -0.51146352      -0.33084166
H       -0.23135905      -0.93864530      -0.11609870
H        0.13580959      -0.24182856      -0.77409387
H       -0.53032982      -0.62351030      -0.64498127
