21
Properties=species:S:1:pos:R:3 pbc="F F F"
H        0.00000000       0.00000000       0.00000000
H        0.63772744       0.77136850       0.22719663
H       -0.58935767       0.81647241      -0.19837920
H        0.13453758       0.73207921       0.44730991
H       -0.07572263       0.64623839      -0.86067963
H        0.28979218       1.41758609      -0.70075238
H        0.42744127       1.28044152      -1.81552362
H        0.13031483       2.25976062      -1.89281404
H       -0.25674561       1.86363232      -2.18947244
H       -0.19578812       1.67935276      -2.52670503
H        0.05852748       1.32863104      -1.69670796
H        0.41391969       0.69188863      -1.16130710
H        0.60500067       1.58784091      -0.39379108
H        0.12968606       1.21119368      -0.68325311
H        0.42453989       1.36450183      -0.07239711
H        0.26784182       0.83026296      -0.84059876
H       -0.83625257       1.51340199      -2.03329253
H       -0.80790579       1.38976395      -2.57116961
H        1.32995844       0.96513301      -1.63085032
H        1.50758827       0.54978067      -1.94917691
H       -0.76862115       1.48463953      -2.58101559
