12
Properties=species:S:1:pos:R:3 pbc="F F F"
H        0.00000000       0.00000000       0.00000000
H        0.42017129      -0.49897972       0.72286665
H        0.61247998      -0.75366068      -0.07017656
H        0.91779506      -1.44591451       0.45509034
H        0.16107702       0.19783702       1.43042612
H        0.72312111      -1.01442492       1.36571789
H        0.61972427      -0.60835254       0.96789402
H        0.16107702       1.02956808       1.93667150
H        0.54205561       0.25496596       2.38712454
H        1.15599895      -0.07738623       1.63483500
H        0.62249243       0.73006427       1.88380361
H        0.41623867      -0.75505322       0.61417186
