10
Properties=species:S:1:pos:R:3 pbc="F F F"
H        0.00000000       0.00000000       0.00000000
H        0.50421435      -0.31530851      -0.77097952
H        1.00705028      -1.17365134      -0.35321054
H        0.18754940      -0.37845421       0.87730187
H        0.71003711      -1.35842228       0.55547190
H        1.05777943      -0.11426234       0.40166950
H        0.09696484      -0.72003406       0.00748751
H        1.24451542      -0.68623841       0.68453312
H        1.21363139      -0.01685670      -0.09202617
H        0.54695541      -0.60267758       0.42341626
