21
Properties=species:S:1:pos:R:3 pbc="F F F"
H        0.00000000       0.00000000       0.00000000
H       -0.46163812      -0.66108263       0.54582143
H        0.11786898      -0.15148079      -0.95457917
H       -0.23347722      -0.96807545      -0.24827845
H       -0.40423888      -1.92374074      -0.58124709
H       -0.72190064      -1.83478570       0.39060777
H       -0.65003920      -0.95953441      -0.41789812
H       -0.53856683      -0.83653140       0.54292619
H        0.87899041       0.61680442      -0.62155831
H        0.00316411       0.80157542      -0.23834965
H        0.85394198       0.69900250      -0.83070171
H        0.80030602       0.74873245      -0.88849854
H       -0.76115173       1.11114264       0.03394517
H       -0.77023691       1.11114264       0.00695439
H       -0.77023691       1.11114264       0.00695439
H       -0.21188568       0.76733446      -0.85916090
H       -0.18996617       0.76733446      -0.86632562
H       -0.33198392       1.03493774      -1.68168533
H       -0.33361393       0.98337168      -1.68870497
H       -0.33483815       0.93158662      -1.69397724
H        1.01214421       0.26941282       0.10277408
