10
Properties=species:S:1:pos:R:3 pbc="F F F"
H        0.00000000       0.00000000       0.00000000
H        0.47219095      -0.55577880       0.64514065
H        0.20719957      -0.08611777       1.45585573
H        0.71778238      -0.15148079       0.64023662
H       -0.33306289       0.33276910       0.92031372
H       -1.29910696       0.38344574       0.80962640
H       -0.11195406      -0.69677156       0.68518782
H       -1.03650546      -0.06754926       0.62784171
H       -0.91875935      -0.32526058       0.48217252
H       -0.54617333      -0.50548595       0.80725187
