21
Properties=species:S:1:pos:R:3 pbc="F F F"
H        0.00000000       0.00000000       0.00000000
H        0.59380746      -0.49897972      -0.58861941
H       -0.21359503       0.02697185      -0.23534888
H       -0.13365769      -0.05915454       0.15825355
H        0.16486683      -0.75521255      -0.60745215
H       -1.19676423      -0.93062997      -1.06578040
H       -1.19676423      -0.93062997      -1.06578040
H       -0.64306724      -0.46708187      -1.79507220
H       -1.19676423      -0.93062997      -1.06578040
H       -1.19676423      -0.93062997      -1.06578040
H       -1.19676423      -0.93062997      -1.06578040
H       -0.55843461      -0.41953844      -1.84795141
H       -1.19676423      -0.93062997      -1.06578040
H       -1.19676423      -0.93062997      -1.06578040
H       -1.19676423      -0.93062997      -1.06578040
H       -1.19676423      -0.93062997      -1.06578040
H       -1.19676423      -0.93062997      -1.06578040
H       -1.19676423      -0.93062997      -1.06578040
H       -1.19676423      -0.93062997      -1.06578040
H       -1.19676423      -0.93062997      -1.06578040
H       -1.19676423      -0.93062997      -1.06578040
