21
Properties=species:S:1:pos:R:3 pbc="F F F"
H        0.00000000       0.00000000       0.00000000
H        0.93511528      -0.39891118      -0.14054634
H        1.24818301      -0.59366977       0.81725407
H        0.36055958      -0.30995619       0.70520580
H        0.31280500      -0.47566167       0.57393748
H       -0.79732364      -0.07983141       0.45413634
H        1.68468440      -0.03110272      -0.44284928
H        1.76195538       0.29989749      -0.00710881
H        1.57363105       0.50376052       0.60783756
H        1.21178198       0.18845201      -0.23933822
H        1.72749114       0.31293839      -0.20411777
H       -0.79834789      -0.29826480       0.34930879
H       -0.88441867      -0.14329264       0.21356167
H       -0.32089978      -0.43963906      -0.09561662
H        0.61022079       0.52014315      -0.33352187
H        0.56566429       0.56713122      -0.33547157
H       -0.42478481      -0.26656440      -0.23217015
H        0.19210255       0.83717012       0.12805423
H       -0.05957438      -0.40245080      -0.37401330
H       -0.00684020      -0.31319192      -0.38969737
H       -0.17323214      -1.01842451      -1.08756697
