6
Properties=species:S:1:pos:R:3 pbc="F F F"
H        0.00000000       0.00000000       0.00000000
H        0.36038706      -0.22961354      -0.93312520
H       -0.33987296      -0.64286757      -0.72424549
H        0.61895752      -0.49138677      -0.80013043
H        0.19896567      -1.00871968       0.06893104
H        0.80693012      -0.22298253      -0.35192955
