21
Properties=species:S:1:pos:R:3 pbc="F F F"
H        0.00000000       0.00000000       0.00000000
H        0.11786898      -0.15148079      -0.95457917
H        0.13152114      -0.49897972      -0.82570112
H        0.17454042      -0.34709048      -0.89281845
H        0.55201656       0.00959132      -0.02423641
H       -0.81082028       0.23476548       0.40802234
H       -0.81082028       0.23476548       0.40802234
H       -0.81082028       0.23476548       0.40802234
H       -0.80255002       0.28425086       0.40539923
H        0.23416181       1.16068041      -0.01853232
H        0.23416181       1.16068041      -0.01853232
H        0.23416181       1.16068041      -0.01853232
H        0.23416181       1.16068041      -0.01853232
H        0.23416181       1.16068041      -0.01853232
H        0.23416181       1.16068041      -0.01853232
H        0.23416181       1.16068041      -0.01853232
H        0.23416181       1.16068041      -0.01853232
H        0.23416181       1.16068041      -0.01853232
H        0.23416181       1.16068041      -0.01853232
H        0.23416181       1.16068041      -0.01853232
H        0.23416181       1.16068041      -0.01853232
