21
Properties=species:S:1:pos:R:3 pbc="F F F"
H        0.00000000       0.00000000       0.00000000
H       -0.78841746      -0.36585209      -0.54577839
H       -0.50569063       0.70907992      -0.43536600
H       -0.59788698       0.39891118      -0.73261517
H       -0.64553744       0.16184512       0.25993985
H       -0.64895064       0.67287767      -0.11909321
H       -0.97035170       0.58848524      -0.48096257
H        0.88560498       0.61586303       0.02332005
H        0.46907562       1.12509322       0.01966482
H        0.80365205       0.59739602       0.76642799
H        0.13422388       1.14136100       0.66581398
H        0.11180320       0.11540759       0.65029335
H       -0.50289446       1.18398774      -0.55676949
H       -0.52252519       1.18398774      -0.52230400
H        0.71036446       0.81092590       0.04369108
H        0.85158128       0.14329264      -0.32033473
H        0.63347530      -0.56713122       0.17670968
H        0.56120890      -0.65269649       0.11483471
H        1.37687707       0.17541744      -0.41026020
H        1.34035718       0.37257829      -0.39937860
H        1.64494252       0.95539320       0.87781191
