7
Properties=species:S:1:pos:R:3 pbc="F F F"
H        0.00000000       0.00000000       0.00000000
H       -0.33100656      -0.58582085      -0.77496612
H        0.37105754       0.13672704      -0.57912338
H        0.69816780      -0.50614053       0.15097529
H        0.37195054      -1.16722322      -0.48511666
H        0.50794214      -0.87565261      -0.48076791
H        0.30469799      -0.94056112      -0.43200836
