21
Properties=species:S:1:pos:R:3 pbc="F F F"
H        0.00000000       0.00000000       0.00000000
H        0.05739931      -0.52769721       0.81627315
H        0.59928691       0.72254789      -0.41485363
H        0.23278411       0.77136850       0.63570917
H       -0.64784342       0.52072489       0.30444828
H        0.46860301      -0.04573733      -1.23529887
H        0.10391468      -0.19669700       1.25636053
H        0.49051988       1.11161220      -0.03775898
H        0.73426425      -0.68161172      -1.92315698
H       -0.00060834      -0.66635799       0.40986526
H       -0.33197862       0.52579135      -0.22115467
H        1.41987002      -0.46377322      -1.26699233
H        0.75403857      -0.37808952      -2.16341114
H       -0.13995026       0.79268581       1.13398623
H        1.01609254       0.79182464      -1.46348500
H        1.48467803       0.64956748      -1.71959472
H        0.71815282       0.96487600      -1.20863426
H        1.88922918       0.12097231      -2.04281569
H        1.41333389      -0.14559209      -2.13152170
H       -0.05484939       0.46033362       0.16670972
H       -0.00713110       0.48106527       0.35703963
