15
Properties=species:S:1:pos:R:3 pbc="F F F"
H        0.00000000       0.00000000       0.00000000
H       -0.58002573       0.67024595       0.51736289
H       -0.08620119       1.16922569       1.19206095
H        0.39996946       0.44063240       0.71788979
H       -0.03751420       0.81366080       0.53348827
H        0.24093397       0.82406586       0.73711413
H        0.41624317       0.83173102      -0.28814241
H        0.51387340       1.90574956      -0.32100499
H        0.38849947       1.91029739      -0.29535928
H        0.64425373       1.21634483      -1.27008474
H        0.87225103       1.59155393      -0.93447018
H        0.59149098       0.43949798      -1.04285860
H       -0.23370546       0.70368981      -0.49278831
H        0.01328564       0.83173102      -0.52711946
H        0.35587299       0.63649529      -1.50229073
