11
Properties=species:S:1:pos:R:3 pbc="F F F"
H        0.00000000       0.00000000       0.00000000
H       -0.39122835      -0.01598554      -0.83368021
H        0.82976842       0.39891118      -0.45351768
H        0.28227890       1.23647308      -0.68170393
H       -0.24204659       0.96807545      -0.23993178
H       -0.06424767       1.38795388      -1.57894063
H       -0.43601802       0.43228859      -1.62153733
H        0.12632161       1.05703044      -1.19372201
H       -0.07518303       0.13510449      -0.85454631
H        0.18633124       1.65451825      -1.99313295
H       -0.20549786       1.07132745      -1.31902659
