18
Properties=species:S:1:pos:R:3 pbc="F F F"
H        0.00000000       0.00000000       0.00000000
H        0.63848275      -0.52769721      -0.51179713
H        0.49942604      -0.05341591      -0.89501083
H        0.60932845      -0.19475858      -0.80256569
H       -0.58617371       0.30956718       0.56100231
H        0.14838493      -0.30514738       0.19239199
H       -0.63887799       0.07722659       1.05964231
H        0.11572075      -0.50596422       0.86335111
H        0.06260276      -0.41782147       0.49734706
H       -0.33872667      -0.78042179       0.90902281
H        0.22982746      -0.22103821       0.99089020
H       -0.63887799      -0.47444034       1.79720688
H       -0.66407496      -0.49970585       1.77717423
H       -1.23667026       0.64435780       0.78548610
H       -1.25442863       0.64435780       0.82809395
H       -1.32827902       0.37549138       1.59265471
H       -0.59006119      -0.22227724       1.52150381
H       -1.63876867       0.76455569       1.83271062
