21
Properties=species:S:1:pos:R:3 pbc="F F F"
H        0.00000000       0.00000000       0.00000000
H       -0.72715116       0.63587439       0.12237607
H       -0.60618567      -0.17778641      -0.39856958
H       -0.30055675       0.08895500      -0.97728020
H       -0.85846651       0.55402482      -0.98921978
H       -0.56001723       1.39291143      -0.26892465
H       -0.43549016       1.34501255      -0.80520856
H       -0.24966174       1.13984561      -0.40655822
H        0.02690685       1.07539725      -0.52987623
H       -1.24302864       1.30568302      -0.62117136
H        0.25624290       0.98916823      -0.57720375
H       -0.49400771       0.74836618      -0.70743752
H       -0.20323613       0.60909814      -0.28870565
H       -1.96371663      -0.64648825      -0.21883731
H       -1.96371663      -0.64648825      -0.21883731
H       -1.96371663      -0.64648825      -0.21883731
H       -1.96371663      -0.64648825      -0.21883731
H       -1.96371663      -0.64648825      -0.21883731
H       -1.96371663      -0.64648825      -0.21883731
H       -1.96371663      -0.64648825      -0.21883731
H       -1.96371663      -0.64648825      -0.21883731
