21
Properties=species:S:1:pos:R:3 pbc="F F F"
H        0.00000000       0.00000000       0.00000000
H        0.36329272       0.89468008       0.34769225
H        0.55821019       0.64286757       0.57310265
H        0.91834581       0.31530851      -0.07268083
H        1.83939064      -0.03017315      -0.98567867
H        1.83102572      -1.02842748      -0.74747247
H        1.16549385      -0.71311897      -0.11051971
H        0.90704381      -0.97501159      -0.30393207
H        1.04690707       0.40131643      -0.49668953
H        0.93761432      -0.11456636      -0.62827384
H        1.16455197      -0.12821424      -0.58653826
H       -0.22020061      -0.01689900      -0.94830745
H       -1.00152242      -0.72570175      -0.53891051
H       -1.28141308       0.11186022      -0.01596218
H       -0.61994779      -0.38711950       0.49545139
H       -0.97344595      -1.36856937       0.26062495
H       -1.18235397      -0.16992295      -1.31767285
H       -1.53790998       0.06890839      -0.36878139
H        0.04360349       0.37216532      -0.65772521
H       -0.08877951      -0.36930704      -0.38253886
H        0.42613515      -0.60243332       1.00937951
