21
Properties=species:S:1:pos:R:3 pbc="F F F"
H        0.00000000       0.00000000       0.00000000
H        0.49089283       0.77460212       0.32722577
H       -0.37030238       1.21437860       0.44124496
H       -0.23462686       0.65815729      -0.41053784
H       -0.36676207       0.67024595       0.68525892
H       -0.92909151       0.64590514      -0.00815319
H       -0.88341588       0.40936196      -0.00775237
H       -0.40485573       0.25416696       0.02571467
H        0.05576256       0.00492305       0.06916839
H       -0.03510714       1.57685411      -0.39313883
H        0.00253439       1.57685411      -0.38083547
H        0.07640633       1.57685411      -0.35230488
H       -0.18445083       0.88333142       1.01832676
H       -0.13433662       0.88333142       1.01568568
H        0.17430657       0.00488281      -0.13788921
H        0.33158872       1.07905090       0.85323572
H        0.38166049       1.03073561       0.84495032
H        0.36440730       0.09407222      -0.10646892
H        0.59028530       1.22072434       0.63727593
H        0.60186565       1.17410254       0.65198553
H        1.58247662       0.28885657       1.23414159
