9
Properties=species:S:1:pos:R:3 pbc="F F F"
H        0.00000000       0.00000000       0.00000000
H        0.68725604      -0.43977645       0.53135377
H        0.64687997       0.51456094       0.72022128
H        0.92940879       0.31388423      -0.03558409
H        0.75189662      -0.22442824      -0.13027120
H        0.94619524      -0.25372428      -0.05477494
H        1.39531040       0.04489991       0.31115970
H        1.17833340       0.03881598      -0.15824032
H        1.09834576       1.06748438      -0.08884096
