7
Properties=species:S:1:pos:R:3 pbc="F F F"
H        0.00000000       0.00000000       0.00000000
H        0.17388797      -0.66108263       0.69339287
H        0.42395785      -0.86484438      -0.14270522
H       -0.36786667      -0.95566529      -0.06856964
H        0.55772662      -0.47992033       0.37574407
H        0.71041477      -0.66437680       0.11289977
H        0.70201635      -1.04918206       0.03502753
