21
Properties=species:S:1:pos:R:3 pbc="F F F"
H        0.00000000       0.00000000       0.00000000
H       -0.13959605      -0.55577880       0.78719991
H        0.34836808      -0.22342661       1.62669802
H       -0.00896454       0.12366387       0.79009628
H        0.96323419       0.43765602       1.26204693
H        0.60677403       0.68549418      -0.33163804
H        0.54371130       1.18054223       0.56517535
H        0.71862495       0.08614057       0.90473330
H        1.07832742       0.90904117       0.36249387
H        0.72937089       0.51109153       0.69805038
H        0.81600338       0.29128850       0.72784638
H        1.90590477       0.03874484       1.18744099
H        1.90270579       0.03874484       1.15440440
H        1.41919041       0.25942037       1.16038072
H       -0.21052328       0.89840174       1.73292899
H       -0.21052328       0.89840174       1.73292899
H       -0.21052328       0.89840174       1.73292899
H       -0.21052328       0.89840174       1.73292899
H       -0.21052328       0.89840174       1.73292899
H       -0.21052328       0.89840174       1.73292899
H       -0.21052328       0.89840174       1.73292899
