21
Properties=species:S:1:pos:R:3 pbc="F F F"
H        0.00000000       0.00000000       0.00000000
H        0.05110265      -0.33235219      -0.96966726
H        0.46778768      -0.73126340      -0.12080485
H        0.98075348       0.02239728       0.22113460
H        1.02992511      -0.26160237      -0.76227266
H        0.49890357       0.59604001      -0.57309115
H        0.49490213       0.58929563      -0.62654257
H        0.02689314      -0.95974720       0.01322442
H        0.02059233      -1.00332892      -0.03703862
H       -0.02503395      -0.95974720      -0.05904418
H        0.17019331      -2.17728472       0.14463899
H        0.17019331      -2.17728472       0.14463899
H        0.17019331      -2.17728472       0.14463899
H        0.17019331      -2.17728472       0.14463899
H        0.17019331      -2.17728472       0.14463899
H        0.17019331      -2.17728472       0.14463899
H        0.17019331      -2.17728472       0.14463899
H        0.17019331      -2.17728472       0.14463899
H        0.17019331      -2.17728472       0.14463899
H        0.17019331      -2.17728472       0.14463899
H        0.17019331      -2.17728472       0.14463899
