7
Properties=species:S:1:pos:R:3 pbc="F F F"
H        0.00000000       0.00000000       0.00000000
H        0.15274149      -0.33235219      -0.95892441
H        0.54865092       0.70907992      -0.37980103
H       -0.05103287       0.56927192      -0.40243781
H        0.68309307      -0.15148079      -0.67712498
H        0.47914469       0.72133017      -0.70656496
H        0.19026873       0.63952136      -1.00490808
