6
Properties=species:S:1:pos:R:3 pbc="F F F"
H        0.00000000       0.00000000       0.00000000
H        0.87747955       0.49504808      -0.19565487
H        0.52402318      -0.25236043       0.41243476
H        0.58763713      -0.75366068       0.18638428
H        0.71564764      -0.19475858      -0.70939511
H        1.39492178      -0.21165758      -0.01199859
