21
Properties=species:S:1:pos:R:3 pbc="F F F"
H        0.00000000       0.00000000       0.00000000
H       -0.30820453      -0.91843063       0.09775501
H        0.55663162      -0.77136850      -0.38532564
H       -0.03155094      -0.49504808       0.89847416
H        0.85771203      -0.21558970       0.35529658
H        0.52728873      -1.27034819       0.45026943
H        0.80004132      -0.28096539       0.45745164
H        0.66816270       0.34709048      -0.61737156
H        1.12567258      -0.01770782      -0.62249404
H        0.68941748       0.34709048      -0.59354246
H        0.72935361       0.34709048      -0.54372096
H        0.13503776      -0.12484525       0.63166761
H        0.13503776      -0.12484525       0.63166761
H        0.11278658      -0.12484525       0.63601756
H        0.86129087       0.05067664       0.45129901
H        0.86129087       0.05067664       0.45129901
H        0.86129087       0.05067664       0.45129901
H        0.87765586       0.01689900       0.42130223
H        0.37664792      -0.36585209      -0.88182342
H        0.37664792      -0.36585209      -0.88182342
H        0.37664792      -0.36585209      -0.88182342
