6
Properties=species:S:1:pos:R:3 pbc="F F F"
H        0.00000000       0.00000000       0.00000000
H        0.42017129      -0.49897972       0.72286665
H       -0.14643784      -0.79461014      -0.54333371
H        0.16277929      -1.32034683       0.14682829
H        0.72181797      -0.51679218      -0.25795740
H       -0.53847849      -0.72859323       0.43722343
