6
Properties=species:S:1:pos:R:3 pbc="F F F"
H        0.00000000       0.00000000       0.00000000
H        0.87747955       0.49504808      -0.19565487
H        0.81211662      -0.32142434       0.42274982
H        0.41034028      -0.84879911      -0.24335547
H        1.29122472      -0.41654459      -0.42179114
H        0.44662303      -0.11809278      -0.92268866
