6
Properties=species:S:1:pos:R:3 pbc="F F F"
H        0.00000000       0.00000000       0.00000000
H        0.52815789      -0.26419187       0.83939010
H        0.63949841       0.70907992      -0.19054769
H        1.14862406       0.52430892       0.61859488
H        0.90149772      -0.17478335      -0.07134742
H        0.29286695       0.67445344       0.73148227
