21
Properties=species:S:1:pos:R:3 pbc="F F F"
H        0.00000000       0.00000000       0.00000000
H        0.65604281      -0.46966103       0.54505712
H       -0.17963797      -0.76811284       1.06070042
H       -0.07054353      -0.90115058      -0.03736275
H       -0.77954406      -0.37845421       0.44400951
H       -0.14226401      -0.99010557       0.98257214
H        0.75971627      -1.24809420       0.32413635
H       -0.07350028      -1.61394632       0.79871643
H        0.78804862      -1.23915696       0.30849230
H       -0.06881338      -1.05285180       0.83234245
H        0.46724284      -1.20147228      -0.06883854
H        0.14884192      -1.53974593       0.54060620
H        0.11452436      -1.52149868       0.59749258
H        0.11301774      -1.52149868       0.57845587
H       -0.10932681      -1.25770271       0.51417315
H        0.20554438      -1.00350249      -0.62568665
H        0.18788978      -0.81514513       0.71184111
H       -0.27818468      -1.50600648       0.95605475
H        0.24190983      -1.04833877      -0.59730387
H        0.23923242      -1.07050431      -0.59250569
H        0.27350566      -1.17774653      -0.52516431
