8
Properties=species:S:1:pos:R:3 pbc="F F F"
H        0.00000000       0.00000000       0.00000000
H       -0.01035373      -0.77460212      -0.58986890
H       -0.22793587      -0.27562240      -1.39717197
H        0.49653196      -0.02094144      -0.94075823
H       -0.87154895      -0.33482566      -0.47584972
H       -0.16592503       0.49897972      -0.81048024
H       -0.74175054      -0.18666740      -0.51320058
H        0.53873128      -0.20026910      -0.77469224
