6
Properties=species:S:1:pos:R:3 pbc="F F F"
H        0.00000000       0.00000000       0.00000000
H        0.24483983      -0.86484438      -0.37437752
H        0.40258476      -0.05341591      -0.94254774
H        1.24836373      -0.51544845      -0.56143260
H        0.85174841      -0.43105525       0.32379907
H        0.95842630       0.29845181      -0.21370386
