6
Properties=species:S:1:pos:R:3 pbc="F F F"
H        0.00000000       0.00000000       0.00000000
H       -0.06381270       0.34709048       0.90747839
H        0.70756614      -0.04014379       0.58597839
H        0.54744434       0.89850152       0.78936702
H        0.67117429       0.64535040      -0.10455340
H       -0.27427357       0.84508562       0.17679024
