6
Properties=species:S:1:pos:R:3 pbc="F F F"
H        0.00000000       0.00000000       0.00000000
H        0.63848275      -0.52769721      -0.51179713
H        0.16083315       0.08895500      -1.00972450
H       -0.72122329      -0.29845181      -0.66639876
H       -0.04831195      -0.85423064      -1.09809446
H       -0.20477092      -0.95953441      -0.17212388
