6
Properties=species:S:1:pos:R:3 pbc="F F F"
H        0.00000000       0.00000000       0.00000000
H        0.12256700       0.83228827       0.37498182
H       -0.13998765       0.22961354       0.99045694
H        0.98985857       0.26419187       0.06088142
H        0.64764905      -0.38510102       0.75576931
H        0.73405135       0.48519778       1.04853654
