21
Properties=species:S:1:pos:R:3 pbc="F F F"
H        0.00000000       0.00000000       0.00000000
H       -0.90169489       0.25064358      -0.26867270
H       -0.16041759       0.49897972      -0.82057685
H       -0.72306049      -0.75527942      -0.36630699
H        0.00533611      -0.49108756      -1.03933370
H       -0.82160926      -0.19783702      -1.18195748
H        0.02337462      -0.16945857       0.02480993
H       -0.02844674      -0.00376773      -0.07730180
H       -1.25287008      -0.94659472      -0.70619786
H       -1.25287008      -0.94659472      -0.70619786
H       -1.25287008      -0.94659472      -0.70619786
H       -1.24576283      -0.92463320      -0.72814536
H        0.43378353       0.11162579      -0.29515511
H        0.43378353       0.11162579      -0.29515511
H        0.43378353       0.11162579      -0.29515511
H        0.43378353       0.11162579      -0.29515511
H        0.43378353       0.11162579      -0.29515511
H        0.43378353       0.11162579      -0.29515511
H        0.43378353       0.11162579      -0.29515511
H        0.43378353       0.11162579      -0.29515511
H        0.39993215       0.15132874      -0.25756717
