6
Properties=species:S:1:pos:R:3 pbc="F F F"
H        0.00000000       0.00000000       0.00000000
H        0.90784711      -0.05341591       0.47569352
H        0.12333469       0.52595156       0.87263244
H        0.77521646       0.40936196      -0.42370179
H        0.91871965       1.02407646       0.38553038
H        0.01507083       0.93531352      -0.00415868
