6
Properties=species:S:1:pos:R:3 pbc="F F F"
H        0.00000000       0.00000000       0.00000000
H        0.44047090       0.80291802      -0.09821343
H        0.00000000       0.55577880       0.79948157
H        0.52871144      -0.25064358       0.77826917
H        1.05393159       0.53872615       0.68101209
H        1.01949096      -0.01781246      -0.11681095
