21
Properties=species:S:1:pos:R:3 pbc="F F F"
H        0.00000000       0.00000000       0.00000000
H       -0.33764970       0.29845181       0.92208624
H       -0.86456466      -0.25732699       0.32081145
H       -1.23909974       0.56264365       0.50866830
H       -0.82149959       0.27037022      -0.49634337
H       -0.24391556       0.82614899       0.05643821
H       -1.17812943       0.56195712       0.38926086
H       -1.10227442       0.41645992       1.51325798
H       -1.05892277       0.41645992       1.56543684
H       -1.20463276       0.38284501       0.48702395
H       -1.36737669      -0.19942081       0.61526453
H       -1.38331616      -0.16183031       0.61051518
H       -1.38331616      -0.16183031       0.61051518
H       -1.37173748      -0.16183031       0.57400978
H       -1.37182057      -0.08503148       0.49105784
H       -0.61662430      -0.83083987       0.52680665
H       -0.60278541      -0.83083987       0.50890732
H       -0.59023619      -0.83083987       0.49008134
H       -0.57903832      -0.83083987       0.47042146
H       -0.64032573       0.08539861      -0.25979483
H       -0.62008780       0.08539861      -0.25156766
