6
Properties=species:S:1:pos:R:3 pbc="F F F"
H        0.00000000       0.00000000       0.00000000
H       -0.21671417       0.94706190      -0.06457304
H        0.05400500      -0.01781246      -1.02473903
H       -0.12216803       0.96578783      -1.13920677
H       -0.76767647       0.38109872      -0.55672908
H        0.60363090       0.61471456      -0.55774516
