21
Properties=species:S:1:pos:R:3 pbc="F F F"
H        0.00000000       0.00000000       0.00000000
H        0.85755634      -0.19475858       0.52914101
H        0.37274846      -0.87984765      -0.18704964
H        1.15923047      -0.23698008      -0.33364853
H        0.25778049       0.02721179      -0.74706650
H        0.74436563       0.57984352      -0.04985845
H        0.49824670      -0.83063298      -0.11476988
H       -0.62512165      -0.58319080      -0.46601757
H       -0.39820397      -0.68186814      -0.86934072
H        0.88867795       0.08439321       0.38883182
H        0.87131733       0.11800810       0.41825953
H        0.59640318      -0.70907992      -0.29928225
H        0.48268509      -0.12870887      -0.02119240
H       -1.15447712       0.44089869      -0.05068765
H       -1.15447712       0.44089869      -0.05068765
H       -1.15447712       0.44089869      -0.05068765
H       -1.15447712       0.44089869      -0.05068765
H       -1.15447712       0.44089869      -0.05068765
H       -1.15447712       0.44089869      -0.05068765
H       -1.15447712       0.44089869      -0.05068765
H       -1.15447712       0.44089869      -0.05068765
