6
Properties=species:S:1:pos:R:3 pbc="F F F"
H        0.00000000       0.00000000       0.00000000
H        0.17388797      -0.66108263       0.69339287
H        0.30630979      -0.87984765      -0.28302526
H       -0.63905519      -0.67024595      -0.44238302
H       -0.82672614      -0.46418250       0.43548670
H       -0.46176088      -1.39279389       0.26459298
