6
Properties=species:S:1:pos:R:3 pbc="F F F"
H        0.00000000       0.00000000       0.00000000
H       -0.51304650      -0.77136850      -0.44169885
H       -0.28395405      -1.40724289       0.25918722
H        0.25068477      -0.64764124       0.80808967
H        0.51239800      -0.85764241      -0.23499309
H       -0.71290255      -0.58659756       0.49316913
