21
Properties=species:S:1:pos:R:3 pbc="F F F"
H        0.00000000       0.00000000       0.00000000
H       -0.50007260       0.47200781      -0.61275923
H       -0.78140128       0.46966103       0.34189394
H        0.37112588       0.88136977      -0.46614087
H       -0.33794260       1.38360047      -0.16999912
H        0.28798306       0.95211089       0.51946276
H       -0.64713222       0.55319971       0.37891638
H        0.70750386       0.36846134       0.17084196
H       -1.18492937       0.07850802      -0.81682193
H       -1.20269585       0.91023904      -0.31088835
H        0.70107245       0.36846134       0.19556610
H       -0.03192615       0.34709048       0.90915883
H       -0.06292927       0.37845421       0.89491522
H        0.00000000       0.31530851       0.92121738
H       -0.57982606       0.70907992       0.33025494
H       -0.54190099       0.70907992       0.38937119
H       -0.44809100       0.60686719       0.91284233
H       -0.46962306       0.64179385       0.87744462
H       -0.59482306       0.66108263       0.39650500
H        1.12074208      -0.47842196      -0.56240183
H        1.12074208      -0.47842196      -0.56240183
