21
Properties=species:S:1:pos:R:3 pbc="F F F"
H        0.00000000       0.00000000       0.00000000
H        0.14728610      -1.02954066      -0.28719354
H        0.99077457       0.26419187      -0.04350019
H        0.42334276      -0.23514163      -0.87545091
H        1.11415243      -0.73406243      -0.24743664
H        0.61211467      -0.43262488       0.60794973
H        0.13009885      -0.86411446      -0.18879449
H        1.08786249      -0.00946307       0.12643102
H        0.36233142       0.50202805      -0.53140014
H        0.50811517      -0.95974100      -1.24052870
H        0.49525082      -0.95974100      -1.24327886
H        0.32602209      -0.75528479      -0.18687636
H        0.48059943       0.22803015      -1.33915234
H        0.49683750       0.22803015      -1.33685732
H        0.74850643       0.95719159      -0.92432249
H        0.74850643       0.95719159      -0.92432249
H        0.94167817       1.16160011      -1.04992390
H       -0.07530424      -0.31041124      -1.58244514
H        0.35133418       0.04607946      -1.69391572
H        0.91715199      -0.19180459      -0.81007230
H        1.44544196      -0.14618663      -0.84853667
