6
Properties=species:S:1:pos:R:3 pbc="F F F"
H        0.00000000       0.00000000       0.00000000
H        1.00909960       0.15966894       0.09771150
H        0.46679306      -0.51057702       0.65448600
H        0.82001972       0.32115400       1.01713645
H       -0.13823050       0.22123420       0.87003142
H        0.35523015       0.90707743       0.35686237
