6
Properties=species:S:1:pos:R:3 pbc="F F F"
H        0.00000000       0.00000000       0.00000000
H       -0.96783787       0.05067664       0.09371616
H       -0.08642247      -0.96923625       0.03425219
H       -1.10780644      -0.95142382       0.13315324
H       -0.48765025      -0.46354809       0.77501249
H       -0.63176918      -0.41301495      -0.63398331
