6
Properties=species:S:1:pos:R:3 pbc="F F F"
H        0.00000000       0.00000000       0.00000000
H        0.45279220       0.75366068      -0.41837266
H        0.98757720      -0.06000012      -0.42306572
H       -0.28917021       0.40936196      -0.83478403
H        0.57990825       0.35868531      -1.27089810
H        0.20511311      -0.40709060      -0.88711214
