6
Properties=species:S:1:pos:R:3 pbc="F F F"
H        0.00000000       0.00000000       0.00000000
H        0.12529835      -0.08895500      -1.01474690
H        0.17485900       0.82263768      -0.54584777
H        0.95983148       0.41002470      -0.96341878
H        0.79004866       0.46070135      -0.00599170
H        0.84898734      -0.33959860      -0.41348749
