21
Properties=species:S:1:pos:R:3 pbc="F F F"
H        0.00000000       0.00000000       0.00000000
H        0.46564069       0.84879911      -0.10382564
H       -0.53220892       0.05067664      -0.81378525
H        0.58993709      -0.77460212      -0.00517706
H        0.19190735       1.28028870      -0.99388784
H        1.45427835       0.58460724      -0.18206958
H       -0.29922724      -0.78688532      -1.35925138
H       -0.34119284       0.84507567      -1.43488669
H        0.15333316      -0.52269346      -2.24169993
H        1.03461695       1.33370459      -1.57724977
H        1.49417365      -0.38726628      -0.13812466
H        0.14234282       0.45064700      -2.26511955
H        0.38703173      -1.35779285      -0.75802422
H        1.83964252      -0.75311840      -1.03262305
H        1.08461583      -0.80584008      -2.21717715
H        1.75902188       0.87015653      -1.01717424
H        1.67773199       0.03172189      -2.22238207
H        0.83952683       0.77748328      -2.41741729
H        1.26930642      -1.21520209      -1.35324836
H        2.04804707       0.03259456      -1.53513002
H        1.03548479       0.76353312      -2.22801805
