20
Properties=species:S:1:pos:R:3 pbc="F F F"
H        0.00000000       0.00000000       0.00000000
H        0.05321160       0.83173102       0.50344110
H        0.30796534       0.25064358      -0.88904220
H        0.40887567       1.62613010      -0.04039448
H        0.68338686       0.70734411       1.30389774
H        0.57903898       1.24002635      -0.92010117
H        0.64672053      -0.67024595       0.43109947
H        1.12991834      -0.24833614      -1.04225278
H        1.41883183       1.40416086       1.13991284
H        1.26896930       1.95848227       0.41027719
H        1.08077013      -0.23475957       1.21529174
H        2.22326517       0.87646365       0.98996782
H        1.91077113       0.39453143      -1.21636248
H        1.32438922      -0.80411494      -0.26678395
H        2.58365226       1.10607719       0.05684263
H        2.00907183       1.76372373      -0.27356565
H        2.56042624       0.27652332      -0.50076258
H        2.08591127      -0.14580457       1.02793515
H        1.63375914       1.35436177      -1.07333064
H        2.17787409      -0.52096832       0.10664949
