21
Properties=species:S:1:pos:R:3 pbc="F F F"
H        0.00000000       0.00000000       0.00000000
H       -0.92501378       0.29845181       0.32954502
H       -0.06647232      -0.94706190      -0.21613917
H       -1.02154422      -1.13183284      -0.25807187
H       -1.52654862      -0.31536043       0.10478806
H       -0.92501378       0.52806532       1.32984567
H        0.32411239      -1.61730790       0.45582643
H        0.67215461      -1.06564093       1.10610950
H        0.00491297       0.29845178       1.69840741
H        0.48650524      -0.08632177       0.86158496
H       -1.97052741      -0.56600404       0.93431896
H       -1.21086574      -1.96697032       0.39830461
H       -0.30229914      -2.23116207       0.79583848
H       -0.36886743      -2.01332355       1.74250412
H       -1.80576074      -1.65166187       1.10168326
H       -2.01865411      -0.66227907       0.93103147
H       -0.77080774      -1.15378928       1.39038622
H       -0.79866481      -1.11679864       1.42110980
H       -0.73629677      -1.15378928       1.20523989
H       -0.66878676      -1.58720553       2.05042505
H       -0.66756213      -1.60238028       2.07151866
