21
Properties=species:S:1:pos:R:3 pbc="F F F"
H        0.00000000       0.00000000       0.00000000
H        0.63772744       0.77136850       0.22719663
H       -0.95452821       0.29845181       0.23049112
H       -1.42891443       0.31535080      -0.61964595
H        0.01787902      -0.12438690      -1.01859319
H       -1.72736561       1.23378146      -0.74403638
H        0.74817932       0.58023065      -1.38506663
H       -1.33954716       1.84849596      -0.01943529
H       -1.33600831       1.54908991      -1.57799137
H        1.11951220       1.16605151      -0.62859476
H        0.84044576       2.14537072      -0.75657862
H        0.33651692       2.16226983      -1.58954382
H       -0.91519564       1.25411713       0.60262096
H       -0.86557984       0.03220418      -1.36163175
H        0.28918168       1.26847911      -1.97289526
H       -0.73098481       2.28090119      -1.36244583
H       -0.69250804       2.48437023      -0.37308058
H        0.07557893       1.51830900       0.55912077
H       -0.75770068       0.80168140      -1.97832215
H        0.25457013       2.35998344       0.00227886
H        0.17386895       1.08482802      -1.98649728
