20
Properties=species:S:1:pos:R:3 pbc="F F F"
H        0.00000000       0.00000000       0.00000000
H        0.97460508       0.08895500       0.30912116
H       -0.60534239       0.05341591       0.82706183
H       -0.14527297       0.73181123      -0.62562698
H        0.02712369       0.14237091       1.63042831
H        0.97460508       0.24862394       1.32294047
H        1.26418054       0.87572753      -0.07228786
H        1.48627865       1.53681016       0.60719955
H       -0.89474797       1.28803253      -0.19874409
H        0.53759420       1.30721712      -0.65470773
H        1.35310340       1.19072759       1.47295225
H       -0.49201930       2.21543932      -0.02253433
H        0.41918296       2.23233843      -0.36529636
H       -1.18531287       0.82801801       0.71895647
H        0.57247019       1.71667910       1.88198841
H       -0.20049578       1.13348830       1.98432636
H        0.88445729       2.35328245       0.45064986
H       -0.96321481       1.48910069       1.39844394
H        0.28276175       2.47766924       1.27272916
H       -0.68275839       2.35328245       0.94773275
