20
Properties=species:S:1:pos:R:3 pbc="F F F"
H        0.00000000       0.00000000       0.00000000
H        0.41703188       0.87984765      -0.00365971
H        0.67299527      -0.55622131      -0.53946185
H       -0.85426718       0.01689900      -0.46690780
H        1.37358212       0.05367875      -0.83145672
H        1.20803440       0.98108566      -0.42422923
H       -1.01793373       0.95554429      -0.66745502
H       -0.71563679      -0.50905257      -1.33724141
H       -0.25871271       1.49456215      -0.47144082
H        0.24787137      -0.83936793      -1.36841214
H        1.39156950       0.10709466      -1.85622358
H       -1.03495753       1.03993750      -1.63732553
H        0.17843902       1.87301636      -1.25485122
H       -0.84148216       0.13381499      -2.12730980
H       -0.33146107       1.58986974      -2.03452468
H        1.07470059       1.49456215      -1.29420185
H        0.30203563       1.03364849      -2.61986542
H        0.68044972      -0.45213366      -2.08343887
H       -0.06973472       0.07798320      -2.66246200
H        1.19745314       1.08641386      -2.09408236
