20
Properties=species:S:1:pos:R:3 pbc="F F F"
H        0.00000000       0.00000000       0.00000000
H        0.50912565      -0.18477097       0.80914259
H       -0.05298162       0.04484257       1.63657045
H       -0.89978123       0.32798919       1.24821591
H       -0.84854573       0.31109020       0.27602750
H       -0.08434072      -0.92740691      -0.43142429
H        0.67534435      -1.19715059       0.83711636
H        0.19347069      -1.56300271       1.66613626
H        0.40225077      -1.62422371       0.14390090
H       -0.50120521      -2.23324871       1.31753969
H       -0.33069032      -2.26709127       0.46459165
H       -1.14816260      -1.98394465       0.01779440
H       -0.19010289      -0.81279981       2.18335295
H       -1.78058624      -1.73330104       0.71441400
H       -1.54405951      -0.38572654      -0.01385322
H       -1.94451237      -0.74372375       0.73435366
H       -1.45250702      -1.90089655       1.51219535
H       -1.58329320      -0.33436179       1.54058218
H       -1.13476670      -1.04344177       2.03463745
H       -1.03243065      -1.14524543      -0.47305045
