20
Properties=species:S:1:pos:R:3 pbc="F F F"
H        0.00000000       0.00000000       0.00000000
H        0.07742673      -0.40936196      -0.88005048
H        0.42523873       0.99041677      -0.04872289
H       -0.95350808       0.15148079       0.12624109
H        0.77471626       1.07481003      -0.95360082
H        0.28797981       1.80662131      -1.37264848
H       -0.86633623      -0.49831694      -1.27339804
H        0.55732125       0.20053810      -1.46808457
H       -1.14276087       1.15740383       0.20124844
H       -0.96431005       0.05746186      -2.06685376
H       -1.44985664      -0.21437129      -0.69419432
H       -1.65920210       0.71854448      -1.89905727
H       -0.13182938       0.52712286      -2.25247502
H       -0.31266651       2.13897347      -0.60970026
H       -1.24409568       1.59839213      -1.85886240
H       -1.34488547       1.96424425      -0.90528101
H       -0.16916333       1.52425885       0.19953191
H       -0.31446582       1.51399887      -2.13585901
H       -1.89694905       0.56023085      -1.07911110
H       -1.81098664       1.26742744      -0.31323367
