21
Properties=species:S:1:pos:R:3 pbc="F F F"
H        0.00000000       0.00000000       0.00000000
H       -0.26684549      -0.92909771       0.11675546
H        0.37769201      -1.29494977       0.82671845
H        0.89065778      -0.54128909       1.16865790
H       -0.22295430      -1.62730193       1.58966660
H       -1.15282440      -0.97703505       0.36390188
H       -1.46426964      -0.05860442       0.45078048
H       -1.67338872       0.17100912       1.42897809
H       -0.02390867      -1.09960473       2.38337779
H       -1.05000210       0.85650331       1.72822309
H        0.62409997      -0.38980830       2.09281230
H       -0.79698223       0.49897972       0.25278342
H       -1.47243404      -0.70568025       1.92330277
H       -1.15833235      -1.50929379       1.34634995
H        0.76940036       0.22961354       0.63923746
H        0.41383585       0.92643028       1.30357492
H        0.24567810       0.50398248       2.17024517
H       -0.81210524      -0.57190752       2.60324764
H       -1.15282440      -1.38639700       1.24735177
H       -1.12202823      -1.24964523       1.34410238
H        0.83449650      -1.80909824       0.54145479
