20
Properties=species:S:1:pos:R:3 pbc="F F F"
H        0.00000000       0.00000000       0.00000000
H        0.17388797      -0.66108263       0.69339287
H       -0.04571859      -0.43977645      -0.86750644
H        0.15075311      -1.58848953       0.25441104
H        0.10287005      -1.44519687      -0.65416598
H       -0.59248269      -2.14426827       0.54898083
H       -0.92424220      -0.32176834      -1.27041006
H       -1.48123240       0.23445296      -0.61184835
H       -0.88608259       0.42921156       0.20128739
H       -1.17056370      -2.32903934      -0.21242768
H       -0.74007559      -1.91967738      -0.98389626
H       -1.36871672      -1.17226887      -1.29935575
H       -1.07578158      -1.61657107       1.20929813
H       -0.59537107      -0.71175927       1.28814769
H       -2.25206470      -0.29324424      -0.33723196
H       -2.18094969      -0.45291317       0.67409003
H       -1.35905385      -0.07445896       1.03370202
H       -2.06542134      -1.41337609       0.78465736
H       -2.21025324      -1.14204335      -0.81247175
H       -2.08092570      -1.82273805      -0.09865642
