21
Properties=species:S:1:pos:R:3 pbc="F F F"
H        0.00000000       0.00000000       0.00000000
H        0.45934626      -0.55622131       0.73002923
H       -0.39868912       0.83756196       0.43915913
H       -0.09622493       0.85446095       1.36451888
H       -0.78962988      -0.43977645      -0.36213565
H       -0.03987870      -1.38795233       0.81404638
H       -0.79356456      -1.40576482       0.11765271
H        0.36969501      -0.08656028       1.57822847
H       -1.36589849       0.85446095       0.32833830
H       -0.98789299       0.83664852       1.87239146
H       -0.43745264      -1.43862891       1.70141768
H       -1.73252773       0.83756196       1.23020208
H       -1.67443871      -0.00318146      -0.14344171
H       -1.05826652      -0.05803156       2.37030625
H       -1.39901721      -1.48930550       1.55689597
H       -1.94680548      -0.54535139       1.99997520
H       -1.56023908      -1.54272139       0.54473090
H       -0.24271077      -0.64385241       2.15815854
H       -1.54082429      -1.44697547       1.56825697
H       -1.39854693      -0.88163877      -0.15160692
H       -1.18093443      -0.36283803       2.21361709
