20
Properties=species:S:1:pos:R:3 pbc="F F F"
H        0.00000000       0.00000000       0.00000000
H       -0.06381270       0.34709048       0.90747839
H        0.79802561       0.16231951       1.32118773
H        1.42911363      -0.15298900       0.65009212
H        1.10360670       1.05611026       1.55744851
H        0.89986461      -0.24194400      -0.22472584
H        0.32053590       1.76072788       1.32412148
H       -0.45036644       1.20450664       0.93727362
H       -0.53201377       1.48765326       0.00925279
H       -0.24390495       0.77136850      -0.63152587
H        1.29274380       0.36795604      -0.87413234
H        1.87720621       1.30675387       1.02192783
H        1.67446947       2.10136414       0.49699599
H        2.08990192       0.51235485       0.40791267
H        2.05854130       0.89390761      -0.43795234
H        0.59081811       1.03556037      -1.16702938
H        0.73367584       2.31920266       0.62155372
H        0.17877728       2.15953374      -0.22692567
H        1.75520623       1.78605556      -0.42067671
H        0.86032832       1.92935109      -0.89032888
