21
Properties=species:S:1:pos:R:3 pbc="F F F"
H        0.00000000       0.00000000       0.00000000
H        0.15274149      -0.33235219      -0.95892441
H        0.25836679       0.93864530       0.01589089
H        0.43229598       0.47857371      -1.61342871
H       -0.90604758      -0.15148079       0.32278812
H       -0.73011792      -0.64766073      -1.22198486
H       -1.29890895       0.72836685       0.46274871
H       -0.60117906       1.38944948       0.30717328
H       -0.30780661       0.67333227      -2.29727173
H       -0.99180365      -0.09188193      -1.97742605
H        0.48047283       1.23709714      -0.94062322
H       -0.68191230       1.60073924      -2.06643581
H       -0.97622120       2.00416398      -0.42412236
H       -1.36334467      -0.56084275      -0.43309748
H       -1.66676545       1.51178420      -1.79170811
H       -0.21141988       2.01010132      -1.31869221
H       -0.24699607       1.90734315      -1.21427131
H       -1.79263258       1.58815932      -0.51766509
H        1.12708354       1.65516126      -1.21012163
H       -0.96939504       2.81622672      -0.50171030
H       -0.19066438       2.01962614      -1.48560500
