21
Properties=species:S:1:pos:R:3 pbc="F F F"
H        0.00000000       0.00000000       0.00000000
H        0.36329272       0.89468008       0.34769225
H        0.26671770      -0.05341591      -0.98961222
H        0.92190301      -0.82478440      -1.16004336
H        0.64920568       0.79538321      -1.27475071
H        0.52771175      -0.79439902       0.37917590
H        1.18700242      -0.38503706       0.96724010
H        1.05301404      -1.23417544      -0.31271636
H        1.74878585      -0.41542244      -1.47108746
H        1.54862332       0.57754469      -1.57749677
H        2.50904679      -0.53980935      -0.79296136
H        1.07150388       0.67684162       0.97939169
H        2.84223461       0.41853172      -0.42595246
H        2.24294758       1.14107966      -0.84080613
H        1.67040586       0.70130324      -1.49414647
H        2.53712630      -0.36200655      -0.81611407
H        2.60223651      -0.39669651      -0.81123996
H        2.33363438      -0.59721869      -2.84035826
H        2.33363438      -0.59721869      -2.84035826
H        2.33363438      -0.59721869      -2.84035826
H        2.33363438      -0.59721869      -2.84035826
