20
Properties=species:S:1:pos:R:3 pbc="F F F"
H        0.00000000       0.00000000       0.00000000
H        0.12529835      -0.08895500      -1.01474690
H        0.49320230       0.82263768      -1.30965257
H        0.26951024       0.89379078       0.27670053
H        0.62471175       1.39277053      -0.48020896
H       -0.13324592       1.29229867      -1.88848066
H       -0.95310330      -0.11800810       0.16040275
H        0.04578954       2.23033237      -0.60929352
H       -0.94976127       0.67758411      -1.98203528
H       -1.42081201      -0.17142400      -0.75158370
H       -0.63266635       2.17965579       0.08726269
H       -0.42517063       2.11232424      -1.45329082
H       -0.66712606      -0.18923646      -1.44797730
H       -0.54097426       1.38883889       0.66575861
H       -2.05962014       0.62297499      -0.87065631
H       -1.42686880       2.02336931      -1.24832296
H       -1.31202519       0.80564809       0.54987085
H       -1.57047546       2.04118180      -0.23226011
H       -1.70648694       1.11802304      -1.69742608
H       -1.96830177       1.14650178       0.07532039
