20
Properties=species:S:1:pos:R:3 pbc="F F F"
H        0.00000000       0.00000000       0.00000000
H       -0.13959605      -0.55577880       0.78719991
H        0.70808405      -0.68016571       1.35225761
H        0.58651191      -0.24038926       2.21241903
H        1.35856080      -0.15442902       0.96648735
H       -0.55129862       0.79461014       0.11280691
H        1.68511093       0.63997000       1.52828717
H       -0.86693639      -0.15686762       1.39149284
H        1.17451966       0.59717274       2.29026914
H        0.92984843       0.28314662       0.05719048
H        0.61666608       1.39178288       2.36412692
H        0.03591466       1.56921220       0.16966699
H       -1.11197209       0.73781246       0.95236981
H       -0.41561377       1.07802582       2.35506821
H       -0.09440319       2.00070190       1.09170699
H        0.78654063       1.84103298       1.59347153
H       -0.33296800       0.07491925       2.26897168
H       -0.78706342       1.53104091       1.58940291
H        0.95561177       1.25238287       0.14651184
H        1.43842721       1.47170103       1.08621073
