20
Properties=species:S:1:pos:R:3 pbc="F F F"
H        0.00000000       0.00000000       0.00000000
H       -0.41358426      -0.01689900      -0.88131911
H        0.82182598       0.61471456      -0.00721203
H        0.67394316       1.49140394       0.50549674
H       -0.63214743       0.61471456       0.52520424
H       -1.38647676       0.86535811      -0.03713542
H       -0.18714717       1.42837536       0.82183838
H       -1.37832940       1.83459437      -0.12974037
H        0.18153337       0.42287746      -1.51416397
H        0.93089420       0.85180986      -0.89051706
H        0.75265151       2.22321510      -0.13193429
H        0.84104991       1.81724095      -0.97957635
H        0.06076407       2.03507948      -1.51972556
H       -0.63074046       2.53012753      -0.94520599
H       -0.11575776       2.66299152      -0.10906710
H       -1.17259121       0.46644694      -0.95824713
H       -0.65569299       2.16401172       0.52932942
H       -0.33149511       1.18628037      -1.79126525
H       -1.48579955       1.97390628      -0.83199918
H       -1.09638560       1.28291941      -1.57540953
