21
Properties=species:S:1:pos:R:3 pbc="F F F"
H        0.00000000       0.00000000       0.00000000
H       -0.93989587      -0.24138860      -0.47165081
H       -0.11793167       0.58582085       0.83440393
H        0.41043633      -0.87668937       0.34100100
H        0.44640544      -0.82327348       1.36529446
H        0.09644245       0.05986929       1.68923879
H       -0.25616562      -1.62409782       0.11662118
H       -1.70743823       0.27904654       0.07985011
H       -1.08402646      -1.19572592      -0.34309131
H       -1.20224011       0.77409458       0.82350731
H       -1.07794631       0.73730165       0.89344960
H       -2.39824820      -0.13901755       0.19611013
H       -3.21877408       0.10237105      -0.46161020
H       -3.53302073      -0.54049653      -1.19733727
H       -3.02324271      -1.35415733      -1.03564799
H       -2.39910126      -1.23614919      -0.29768962
H       -0.68833184      -0.18151931       2.38923025
H       -4.47760630      -0.75833499      -1.10587263
H       -4.83026791      -0.20211369      -0.31874394
H       -2.68183303      -1.92164338       0.33335817
H       -0.59401828      -2.00255203       0.94769818
