20
Properties=species:S:1:pos:R:3 pbc="F F F"
H        0.00000000       0.00000000       0.00000000
H        0.88292891      -0.28314662      -0.29719594
H        1.10464609      -0.92601418       0.47149560
H       -0.32715181      -0.43977645       0.80475414
H        0.39359054      -0.99555528       1.15073299
H        1.88419008      -0.54755998       0.91550523
H        2.14623618       0.28417104       0.48235831
H        2.01196527       1.01598227       1.11043835
H        1.50174880       0.45202816      -0.36651590
H        1.32777834       1.59917307       0.73648953
H        0.57896340       1.61607206       1.35862410
H        1.70348716       0.63752806       1.95286012
H        0.72330785      -0.62970316       2.05115652
H        0.80638367       0.98461854       2.10383844
H        1.60678935      -0.32293481       1.82549655
H       -0.19266820       1.23761785       0.90100199
H       -0.44176841       0.27927679       1.32955623
H        0.97072726       1.30967057      -0.17733441
H        0.24549228       0.19032179       2.08657908
H        0.07825316       0.96543115       0.09939816
