21
Properties=species:S:1:pos:R:3 pbc="F F F"
H        0.00000000       0.00000000       0.00000000
H       -0.47549847       0.19475858       0.88842231
H        0.72077233       0.72254789      -0.10833093
H       -0.64412612       0.12438690      -0.78927392
H        0.00657895       0.90383852       1.34979844
H        0.53016609       1.30836868      -0.92918843
H       -0.29051757       0.95952439      -1.37376821
H        0.66166097       1.30836868       0.73229009
H        0.41743821       2.20215940       0.43303403
H        0.35796952       2.22679925      -0.65551996
H       -0.93910277       1.75392342      -1.33387697
H       -1.70729244       1.42157125      -0.73994893
H       -0.71598363       1.62638640       1.44546318
H       -0.43076843       2.45280290       0.84019995
H       -0.50232059       2.54832244      -0.85275805
H       -1.45043540       0.45895046       0.70669591
H       -1.46949387       0.45349580      -0.49580619
H       -1.59559071       1.36560738       1.03067756
H       -1.01144612       2.73309350      -0.04361540
H       -1.73392916       2.03147125       0.01858479
H       -1.56973922       0.47584945      -0.25950384
