20
Properties=species:S:1:pos:R:3 pbc="F F F"
H        0.00000000       0.00000000       0.00000000
H        0.52815789      -0.26419187       0.83939010
H       -0.27763951       0.92909771       0.08806052
H        0.03516924       1.27618814       0.94230855
H       -0.75623721      -0.52573669      -0.00663632
H       -1.24762201       1.01349092       0.07954849
H       -1.55610013       1.39194512       0.92197031
H       -0.75623721      -1.10892749       0.77307481
H       -2.05011582       0.66013390       1.33241117
H       -1.61285567       0.05782562      -0.00188907
H       -2.11825919      -0.16001287       0.80133849
H        0.44992951       0.54437691       1.43270350
H        0.09505010      -0.87931395       1.29834759
H       -1.60752439      -0.87931395       1.29834771
H       -1.56970024       0.47536293       2.15892267
H       -0.80882317       1.54038000       1.46308041
H       -1.24846613      -0.44306770       2.12211633
H       -0.02815497       0.33831346       2.19251323
H       -0.27496606      -0.42616871       2.11357331
H       -0.83688056       0.98460120       2.26206946
