21
Properties=species:S:1:pos:R:3 pbc="F F F"
H        0.00000000       0.00000000       0.00000000
H        0.49089283       0.77460212       0.32722577
H       -0.14838916       1.50641334       0.38912773
H       -0.01096794       1.80486512       1.36142695
H       -0.99138540       0.26419187       0.02610543
H        0.09677093      -0.68549418       0.68468529
H        0.96639115       0.57984352       1.21564817
H       -0.76520258      -0.93613780       1.06183279
H        0.69978994      -0.30703998       1.34891522
H        0.69022191       1.21904421       1.82883525
H       -1.46492898      -0.32162899       0.72316658
H       -0.76520258      -0.71829927       2.01083612
H        0.18473339      -0.25362408       2.23502326
H       -0.88228524       1.68685699       1.77968669
H       -1.46474433       1.37154841       1.06597590
H        0.18079883       0.66282290       2.52484512
H       -1.68434715       0.46489149       1.34491801
H       -1.35901880       0.03536141       2.17648292
H       -0.81120729       1.06150866       2.45216370
H       -1.11944509       1.20796156       0.24317953
H       -0.77320653       0.82976043       2.45769119
