21
Properties=species:S:1:pos:R:3 pbc="F F F"
H        0.00000000       0.00000000       0.00000000
H       -0.77018702      -0.01689900       0.59547228
H       -1.31585217      -0.83337140       0.29723382
H       -0.39347917      -0.24651255       1.52212894
H       -0.77090412      -1.09531164       1.81393611
H       -0.00944656      -1.76555753       1.96974576
H       -0.15908848      -0.74740851      -0.68512434
H       -1.44360614      -1.39376342       1.09858835
H        0.87559795      -0.19475858       0.49871966
H        0.60736805      -1.41765451      -0.55613351
H        0.84554982      -1.35619557       1.74733853
H       -0.17658593      -2.49736881       1.34960246
H       -0.92663336      -1.30303240      -0.46170497
H        1.24772000      -1.88214707       0.96314591
H        0.60839522      -2.62955570       0.66994238
H       -0.69737655      -2.20968938      -0.19064140
H       -0.99283880      -2.27953029       0.86551738
H        0.29357013      -2.47807503      -0.23890281
H        0.64305657      -0.37952954       1.42599797
H        0.71086067      -1.66441417      -0.57339597
H        1.28766489      -1.27224708       0.20519656
