21
Properties=species:S:1:pos:R:3 pbc="F F F"
H        0.00000000       0.00000000       0.00000000
H       -0.07115869       0.77136850       0.67323917
H        0.65862775       1.35455930       0.39871934
H        1.29109383       1.44351435       1.20208573
H        0.79489589       0.12438690      -0.63717526
H        1.23989618       0.93804771      -0.34054115
H        2.22167540       1.11116219       0.92480564
H        0.91976106       0.85769349       1.95855761
H        1.56840134       0.14861357       2.11518574
H        0.08768585       0.42427802       1.56898332
H        2.14093852       0.79585367       0.00713295
H        1.48397064      -0.62302160      -0.49617663
H        1.18024158      -0.65430444       1.88498461
H        0.27411163      -0.49463552       1.43027794
H        1.09127140      -1.25889599       0.12793228
H        2.26712346      -0.18324515      -0.12023881
H        1.75393581      -1.27670848       0.91143882
H        0.18798912      -0.89304388       0.44973525
H        2.41550946       0.25351977       1.45414662
H        2.42376900      -0.56169939       0.76310456
H        1.66378450      -1.06366634       1.14561319
