20
Properties=species:S:1:pos:R:3 pbc="F F F"
H        0.00000000       0.00000000       0.00000000
H       -0.43620220       0.58582085      -0.72101700
H       -1.40170634       0.67021406      -0.62752682
H       -1.62848401       0.14251685       0.15871012
H       -0.78457874      -0.26419187       0.60659927
H       -0.29046255       0.03289741      -1.63598311
H       -1.21377778      -0.19671613      -2.02080846
H       -1.84789360       0.20666596      -1.42712927
H        0.19059333      -0.84379196      -1.40506124
H       -0.39368227      -1.59745264      -1.60172987
H        0.36637327      -0.81366080      -0.38959935
H       -2.22132540      -0.58929437      -0.08837806
H       -2.34707808      -0.57148194      -1.10680473
H       -0.54260981      -2.06711364      -0.76190847
H       -1.96158075      -1.36609209      -1.51674056
H       -0.08837432      -1.59745264      -0.04000163
H       -1.75069571      -1.42102540       0.09814855
H       -1.55981648      -1.92187095      -0.82554138
H       -1.25321901      -1.19854140      -1.99592578
H       -0.88192946      -1.28581917       0.59544504
