21
Properties=species:S:1:pos:R:3 pbc="F F F"
H        0.00000000       0.00000000       0.00000000
H       -0.29363519      -0.58319080       0.72230726
H        0.41541493       0.74740851       0.56756932
H       -0.77359951       0.25064358      -0.53552073
H        0.34835643       0.56263757       1.52120638
H       -1.61309099      -0.18084601      -0.13253841
H       -0.87645602       1.20498097      -0.37205300
H       -2.25869989       0.54170191       0.20574769
H       -0.28484839       1.22372019       1.85299301
H       -1.75762963       1.35646176       0.01349533
H       -1.31201053      -0.73662484       0.60808384
H       -0.18370533       1.57083309       0.29094967
H       -0.59888029       1.77949905       1.11776876
H       -1.63886738       1.71445894       0.85377592
H       -1.13173735       0.72867215       2.15470529
H       -2.00562954       1.04421306       1.53903484
H       -1.18893862       0.73045599       2.17046165
H       -1.45129204       1.28144395       0.98954058
H       -1.47091770       1.28144395       0.97042507
H       -2.19518209       1.22022307       0.99182951
H       -2.19518209       1.22022307       0.99182951
