21
Properties=species:S:1:pos:R:3 pbc="F F F"
H        0.00000000       0.00000000       0.00000000
H        0.30968034       0.89379078      -0.23086154
H       -0.09768263       1.25964284      -1.09892344
H       -0.56333476      -0.28314662      -0.74198574
H        0.72715116      -0.63587439       0.12237594
H        0.66654789      -1.32136858      -0.56645334
H        1.46700621      -1.30446959      -1.12056696
H        1.21146870      -1.00601780      -2.06869721
H       -0.12169576      -1.09961903      -1.17976618
H        1.32444394       0.87597835      -0.38337889
H        1.50119042       1.19128680      -1.28748190
H        0.69721329       1.38402975      -1.73609877
H       -0.50169206       0.46426189      -1.44263160
H        0.24238229      -0.92162460      -2.11124516
H        0.60420018       0.77412969      -2.48937917
H        1.57041895      -0.11340445      -0.26530319
H       -0.21495312       0.18830884      -2.29157710
H        1.64669120      -0.09442514      -2.25009203
H        0.91750431       0.54144925      -2.35968781
H        0.07508978      -0.77976662      -2.11261082
H        1.97201049      -0.48799717      -0.75770700
