20
Properties=species:S:1:pos:R:3 pbc="F F F"
H        0.00000000       0.00000000       0.00000000
H        0.11786898      -0.15148079      -0.95457917
H        0.70291895      -0.58319080       0.33742309
H        1.16975391      -1.05285180      -0.37640077
H        0.74462998      -0.76970518      -1.20535111
H        0.29334018      -1.30573869       0.94032735
H        0.33478716      -1.58617759      -1.67303216
H       -0.89143229      -0.36585209       0.35330516
H        0.55116773      -2.17058301       0.57477295
H       -0.76467931      -0.58297038      -1.25164700
H       -0.66756284      -1.15425789       0.89813864
H        1.12502265      -1.95274448      -0.18106943
H        0.65412784      -2.29983497      -0.95943129
H       -1.33438325      -0.74263930      -0.41303676
H       -1.03311706      -2.03094721       0.50941026
H       -0.23772925      -2.64566183       0.30250877
H       -0.54670358      -1.44781470      -1.64227676
H       -0.17988193      -2.67828918      -0.62888467
H       -1.45028043      -1.73249543      -0.37953579
H       -0.92717922      -2.17930937      -1.00388730
