21
Properties=species:S:1:pos:R:3 pbc="F F F"
H        0.00000000       0.00000000       0.00000000
H        0.80713278      -0.08439321       0.53802919
H        1.46078146      -0.64061451      -0.02471870
H       -0.72734034      -0.39891118       0.60429287
H       -1.01481640      -1.17351329       0.08911324
H        0.65015513      -0.57944131       1.42324626
H        1.12574351      -1.42824042       1.38560665
H       -0.82328266      -1.92717397       0.67509216
H        1.68415439      -1.47817647       0.52475220
H        1.38762319      -2.27257538      -0.05345476
H       -0.21476495      -2.53707409       0.22145233
H       -0.27017817      -0.74600166       1.39079905
H        0.70331472      -2.55579996       0.78793824
H       -0.35994899      -1.76762891       1.43007731
H        1.03565753      -0.92376113      -0.85366899
H        1.44989324      -2.12431049       0.23137629
H        0.11447555      -0.60845262      -0.86175275
H        0.41428334      -2.23916626       1.40434098
H        0.01200645      -2.23880935      -0.61994576
H       -0.51270825      -1.25790656      -0.74084228
H        1.00186503      -1.97461748      -0.55906433
