20
Properties=species:S:1:pos:R:3 pbc="F F F"
H        0.00000000       0.00000000       0.00000000
H       -0.47398776      -0.23709527       0.75329894
H       -1.01697135       0.62054718       0.90476584
H        0.07110351      -0.32148847       1.55567932
H       -0.74952090       1.32516479       0.13268316
H       -0.28551266       2.05697608       0.57676601
H        0.67494369       2.03916359       0.21547630
H       -0.13916233       0.89379078      -0.36032319
H        0.76216102       1.22823763      -0.49086615
H       -0.66628504       1.05203676       1.76741266
H        1.03155982      -0.30367601       1.19438958
H        1.32145441       1.88768280       0.92761278
H        1.04807210      -0.05303243       0.25366330
H        1.43446112       0.61833757      -0.13859445
H       -0.23769659       1.96362948       1.57085586
H        1.73823714       1.02769947       0.69098604
H        0.70180750       1.84562135       1.79771924
H        1.50986719       0.51279640       1.59177959
H        0.84180403       0.90351766       2.18003511
H       -0.07382828       0.43996957       2.17199993
