20
Properties=species:S:1:pos:R:3 pbc="F F F"
H        0.00000000       0.00000000       0.00000000
H       -0.32983679       0.96807545      -0.08579928
H        0.25969583      -0.40936196      -0.84441799
H        1.22119117      -0.56084275      -0.81909955
H       -0.31295672       1.11955619      -1.04747987
H        0.02890995       0.28199422      -1.53218699
H        0.36195937       1.80505037      -1.19796848
H        0.28654855       1.57797551       0.35709119
H        1.62479043       0.02234805      -1.48622561
H        0.90675205       0.55004525      -1.87867618
H        1.10253465       1.47914290      -1.66302013
H        2.24117565       0.63224810      -1.04333520
H        1.89219248       1.52981949      -1.09562850
H        0.80908364       0.05067664       0.53932959
H        0.96693248       1.02219677       0.77691090
H        1.57786179      -0.31517544      -0.03378165
H        1.65894532       1.89567161      -0.16553611
H        0.68547976       2.05569386      -0.31446797
H        1.81513119       1.24003530       0.35127464
H        2.19115877       0.42356288      -0.14400309
