20
Properties=species:S:1:pos:R:3 pbc="F F F"
H        0.00000000       0.00000000       0.00000000
H        0.02715597      -1.02162731       0.09414954
H        0.27657518       0.25064358      -0.89930242
H       -0.93039113      -1.35397947       0.25530013
H       -0.48570743       0.69042003      -1.31593513
H       -1.19823289      -1.88167667      -0.51791227
H       -0.90844220       0.31530851       0.15288648
H       -0.43861485      -1.89857566      -1.12680936
H       -1.93184638      -1.41201568      -0.95298749
H       -1.23362017       0.74109668      -0.69455016
H       -1.60442865      -1.18240213      -1.89818537
H        0.29457384      -1.36871779      -0.77537721
H       -0.74739313       0.13464123      -2.07137632
H       -0.09820771      -0.65975779      -2.09987903
H        0.62429714      -0.56624103      -1.30403447
H       -2.17903876      -0.49036783      -0.44941181
H       -1.46433878      -0.54233390       0.24644122
H       -1.52618337      -0.21316588      -1.94838238
H       -0.69831061      -1.48921371      -1.97122741
H       -1.83899212       0.13392460      -1.09413433
