21
Properties=species:S:1:pos:R:3 pbc="F F F"
H        0.00000000       0.00000000       0.00000000
H        0.52691501       0.55577880      -0.60127473
H        0.12530106       0.46682382      -1.54154980
H       -0.72638679      -0.40936196      -0.50283790
H       -0.71042126      -0.06227148      -1.41241705
H        0.73903042       0.03533423      -2.24189043
H        1.34332645       0.13977408      -0.69481730
H        1.34332645      -0.76185000      -0.10219491
H        1.46366274      -0.15867773      -1.66937852
H        0.31025809      -0.77832657      -2.56153297
H        1.46372616      -1.51350820      -0.62070394
H        0.58581227      -0.79439902       0.28120819
H        0.63484907      -2.01248789      -0.51096356
H        1.54882705      -1.18115604      -1.58798051
H       -0.53699875      -0.83687359      -1.97631168
H       -0.62843311      -1.43098927      -0.50025856
H        0.84594584      -1.53198719      -2.25641799
H        0.31751913      -2.05968428      -1.63162863
H        0.68414813      -2.04278517      -0.72976476
H       -0.51725036      -1.63148379      -1.41393673
H        0.16852182      -1.60805988      -0.05328509
