20
Properties=species:S:1:pos:R:3 pbc="F F F"
H        0.00000000       0.00000000       0.00000000
H       -0.96783787       0.05067664       0.09371616
H        0.16947366      -0.95433736      -0.09262741
H       -0.69142014      -1.51055861      -0.03967816
H        0.22990148       0.40936196      -0.85301179
H       -1.42962980      -0.81374186       0.11137453
H       -0.58555651       0.78781617      -1.22699261
H       -1.39790142       0.55820262      -0.64329982
H        0.54911208      -1.07234550      -0.98145229
H        0.63345283      -0.14493859      -1.41287661
H        0.04547137      -0.19561523      -2.18732524
H       -0.33958739      -1.08940601      -2.21779990
H       -2.00419116      -0.08466494      -1.16527486
H       -0.72098517       0.47463071      -2.05833435
H       -1.51162601       0.00262290      -2.03751493
H       -0.04808170      -1.58857894      -1.50073051
H       -2.01882720      -0.96451259      -0.74848378
H       -1.67497659      -1.66132927      -1.41895902
H       -1.30427098      -0.97139794      -2.15846705
H       -0.82558608      -1.98021960      -0.88198382
