20
Properties=species:S:1:pos:R:3 pbc="F F F"
H        0.00000000       0.00000000       0.00000000
H        0.47219095      -0.55577880       0.64514065
H        0.20563313      -0.40429801       1.56929505
H       -0.71745026       0.40936196       0.51550835
H       -0.57746267       0.17974842       1.50596523
H       -1.57963645       0.06227148       0.22529441
H        0.43147275      -1.49442410       0.38950819
H       -1.36508274      -0.31923130       1.78656244
H       -1.99651921      -0.34709048       1.00419903
H       -1.39482152      -0.64234608      -0.57062316
H        0.03531772      -1.98947215       1.19654751
H       -0.24402526      -1.54784000      -0.38131809
H       -0.82686847      -2.33656263       0.90633357
H       -0.48377103      -0.64286757      -0.63718987
H       -1.03164530      -2.04681969      -0.10072091
H       -1.74568844      -1.53702617      -0.21039557
H       -0.14796959      -1.29265547       1.92742109
H       -2.06388140      -1.28573585       0.75426251
H       -1.07094383      -1.26133502       2.06807041
H       -1.58309984      -1.90507305       1.44970715
