21
Properties=species:S:1:pos:R:3 pbc="F F F"
H        0.00000000       0.00000000       0.00000000
H       -0.51304650      -0.77136850      -0.44169885
H       -0.31798306      -1.62016761      -0.00632399
H        0.34130248      -1.45231056       0.83110887
H        0.52327901      -0.43148959       0.77027249
H       -0.19554019      -0.85576171      -1.35828412
H        0.60521507       0.40936196      -0.64358246
H        0.17828214      -1.74955249      -1.45552528
H        0.17828214      -2.24853230      -0.61941516
H        1.20289624      -1.94735861       0.57438469
H        1.88989162      -1.26186442       0.49567032
H        1.12410402      -2.44240665      -0.32118392
H        1.17493534      -1.58988357      -1.64129972
H        1.55229330       0.28497505      -0.26822302
H        1.50444603      -0.27182066       0.51504493
H        1.77190804      -2.04349542      -1.01005530
H        2.03573370      -0.27080375      -0.90497744
H        2.24682045      -1.13564813      -0.51058239
H        1.30139661      -0.62445241      -1.63796973
H        0.50634193      -0.03491196      -1.44432116
H        2.26988029      -1.33441544      -0.56588161
