21
Properties=species:S:1:pos:R:3 pbc="F F F"
H        0.00000000       0.00000000       0.00000000
H        0.19410905      -0.89379078       0.33394706
H       -1.01378036       0.15966894      -0.00889638
H       -1.43176782      -0.65680349       0.45152000
H       -0.66103280      -1.27224493       0.60517728
H        0.63169312      -1.44956958      -0.33515012
H        0.01633149      -2.22093821      -0.61736387
H       -0.77142239      -2.13654494      -0.05134046
H       -0.26881212      -2.13654494      -1.54452717
H       -2.04549718      -1.08829308      -0.24882063
H        0.67494601      -0.83485502      -1.15586877
H        0.33588240       0.01781246      -0.96963376
H       -0.43524924       0.16929325      -1.54449940
H       -1.29091120      -2.04759002      -1.51761293
H        0.12592214      -1.36686587      -1.86093950
H       -1.58097887      -1.98506415      -0.57069850
H       -1.49413073      -1.16774237      -1.88179803
H       -1.96990466      -0.53207177      -1.10802233
H       -0.52855068      -0.66826868      -2.13025427
H       -1.88311839      -0.66856939      -1.21257997
H       -1.33128667       0.24406216      -0.92548162
