20
Properties=species:S:1:pos:R:3 pbc="F F F"
H        0.00000000       0.00000000       0.00000000
H        0.58115071      -0.52769721      -0.57607329
H        0.32850006      -1.46634245      -0.63240778
H        1.47174442      -0.47428131      -0.06881237
H        1.68054509      -1.39271188       0.17806481
H       -0.65314591      -0.63587439       0.34223533
H        1.35238147      -0.00462028       0.77571815
H        0.47520250       0.39891118       0.81754291
H        1.64453244      -1.41052437       1.20359385
H        0.11398336      -0.01045078       1.62377143
H       -0.44992650      -1.51572204      -0.02194989
H        0.84801543      -0.56667209       2.07669377
H       -0.19458708      -2.13043666       0.75923622
H        0.91873693      -2.10734105       1.40605664
H        1.69174170      -0.54885966       1.49262810
H       -0.25508901      -1.57421541       1.61963224
H        0.78034985      -2.39462852       0.57750964
H        1.10969758      -1.96139050      -0.18745637
H       -0.58485663      -0.65277338       1.31337476
H        0.61622834      -1.45620728       2.03789186
