21
Properties=species:S:1:pos:R:3 pbc="F F F"
H        0.00000000       0.00000000       0.00000000
H        0.12256700       0.83228827       0.37498182
H       -0.70568484      -0.39891118       0.62944639
H        0.90296930      -0.46354809       0.15196526
H       -0.26850513      -1.17027974       1.14634919
H        1.04719234       0.91668147       0.66825062
H        0.73306048      -1.18809223       0.92302644
H        1.20996404      -0.97025371       1.74349594
H        1.53050017       0.17232630       0.53917283
H       -1.01561570       0.34849733       1.26083159
H       -0.49855351       0.98376906       1.10936844
H        0.60237718      -0.71961010       2.46188092
H        0.04193473       1.13524985       1.90497315
H        1.01208723       1.14629507       1.66793513
H       -0.79433000       0.00140685       2.14322710
H       -0.39694676      -0.94069684       2.05462098
H       -0.35846984      -0.87927902       2.13845754
H        0.49801698      -0.27457416       3.20026231
H        0.85476136      -1.13767421       1.80840015
H       -0.32058641       0.21839285       3.43697166
H       -0.32058641       0.21839285       3.43697166
