21
Properties=species:S:1:pos:R:3 pbc="F F F"
H        0.00000000       0.00000000       0.00000000
H       -0.02074104      -0.97334045      -0.01546210
H        0.73213559      -1.43688858      -0.53663749
H        0.75432920       0.25064358      -0.56233984
H        1.14933515      -0.58108747      -0.87897003
H        0.12554862       0.37845421       0.88829666
H        1.05671668       0.80994380       0.88012511
H        0.14718385      -0.37520647       1.50440407
H        1.32330692      -1.96458578       0.02914780
H        1.08729517      -0.39301893       1.91574001
H        1.66101480       0.31489572       1.54576397
H       -0.00716953      -1.21276844       0.93170106
H        1.44583368       0.74569166       0.01217979
H        2.17462230      -1.49492478       0.08150809
H        2.36938000      -1.21177816       0.99252856
H        0.87167573      -1.91116989       0.94920218
H        1.61860251      -1.42961669       1.57299423
H        0.03160584      -1.32534909       0.88271642
H        0.68054688      -0.50367939      -0.50092542
H        1.11130238      -0.63500655       1.81651425
H        2.17996454       0.19402474       0.08326597
