21
Properties=species:S:1:pos:R:3 pbc="F F F"
H        0.00000000       0.00000000       0.00000000
H       -0.19310522      -0.77460212      -0.55746114
H       -0.51846963      -0.01689900       0.82399309
H       -0.58721679      -1.48368204      -0.01899791
H       -0.46455219       0.64844042      -0.46049330
H       -1.20333588       0.99553090       0.07034364
H       -0.93357605      -0.89674664       0.86418802
H       -0.74419445      -0.98863399       0.86621916
H       -1.50327253      -1.43026614      -0.47868547
H       -1.23267877       0.49655119       0.90593874
H       -2.08972192       0.73133904      -0.37445533
H       -1.85576653       0.23629096      -1.24250841
H       -1.39309955      -0.93521810      -1.37093723
H       -2.18114519      -0.90431458       0.08450851
H       -2.57432246      -0.08784217      -0.39726767
H       -0.83986485       0.23907846      -1.26025832
H       -0.63376141      -0.59981877      -1.34715140
H       -1.64428616      -0.51970083       0.93772709
H       -1.50437748      -1.46586955      -0.47923997
H       -1.11898732      -0.40547788      -0.30964211
H       -1.11898732      -0.40547788      -0.30964211
