20
Properties=species:S:1:pos:R:3 pbc="F F F"
H        0.00000000       0.00000000       0.00000000
H        0.59380746      -0.49897972      -0.58861941
H        0.36755341      -0.26936617      -1.56299639
H       -0.66031027       0.49504808      -0.61011606
H       -0.47511089       0.31645468      -1.57039118
H        1.55135465      -0.16662753      -0.42746896
H       -0.18239316       1.13011551      -2.01797724
H       -0.28082418       1.87752402      -1.32154655
H        1.44935286       0.55592036       0.29422629
H        0.79748690       1.04116046      -2.30994654
H        0.65661365       2.27643514      -1.19743299
H        1.29627478       1.70224309      -1.79785156
H        1.08847713       0.16131282      -2.01119304
H       -0.52884769       1.50097108      -0.45468026
H        0.50984871       0.67392844       0.52108955
H        1.82447135       0.28569973      -1.30680370
H        0.20714653       1.62535799       0.24970901
H        1.93195927       1.24616265      -1.18840492
H        0.96384448       2.12040615      -0.23573866
H        1.76359558       1.47753859      -0.21467935
