21
Properties=species:S:1:pos:R:3 pbc="F F F"
H        0.00000000       0.00000000       0.00000000
H        0.50421435      -0.31530851      -0.77097952
H        0.65354043      -1.37281752      -0.61766958
H        0.59511757       0.46966103       0.61099464
H        0.27687919      -1.68812609       0.22302526
H       -0.16576150      -0.85056412       0.61784542
H        1.71438885      -1.54067457      -0.51494724
H        0.95577389      -2.03521657       0.82857549
H        1.51117325       0.52307695       0.15130693
H        2.18066931       0.14462274       0.74847388
H        2.52070355      -0.62997937       0.26636478
H        2.05202293      -0.78146017      -0.57354760
H        1.37262368       0.12446794      -0.74811226
H        2.04833603      -0.64690053      -0.70655245
H        1.88178515      -1.91082966       0.40389344
H        2.42883825      -1.22533548       0.82684898
H        0.57811648      -0.40148363      -0.36672381
H        0.24624670      -0.65580553       1.53743351
H        0.98313737      -1.45202577       1.60780632
H        0.74937528       0.06029907       1.48087299
H        1.91816759      -0.85948336       1.63844728
