20
Properties=species:S:1:pos:R:3 pbc="F F F"
H        0.00000000       0.00000000       0.00000000
H        0.69739223       0.29845181      -0.69129914
H        0.25665134       1.02099967      -1.27181268
H        0.93037391      -0.53911018      -1.23676527
H       -0.90549725       0.46354809      -0.13609484
H       -0.75590044       1.04673886      -0.90132046
H        0.20688523       0.62208849      -2.21612048
H       -1.34968567       0.74828708      -1.68341351
H        0.60054505      -0.34435159      -2.18892384
H       -1.58769596      -0.25899979      -0.39271381
H       -1.11107957      -1.10779893      -0.41363975
H       -0.75590062       0.44983527      -2.46550655
H       -0.07696724      -1.00543427      -2.41697621
H        0.37736464      -1.33350921      -0.89553988
H       -1.16218221      -1.44015110      -1.38330698
H       -1.71561027      -0.74333435      -1.89466572
H       -2.01392436       0.02803415      -1.28694594
H       -0.13946070      -1.00592303      -0.14830178
H       -0.94623065      -0.49722663      -2.58760977
H       -0.18608436      -1.58862507      -1.64493799
