21
Properties=species:S:1:pos:R:3 pbc="F F F"
H        0.00000000       0.00000000       0.00000000
H        0.05739931      -0.52769721       0.81627315
H        0.33734825       0.95566529       0.16193771
H        0.21492414       0.16911954       1.55312884
H        0.30925450       1.04896712       1.14688909
H       -0.59689456       0.18693200       2.18078876
H       -0.91605568      -0.05341591      -0.45968756
H       -0.48010537       1.51188660      -0.11321917
H       -1.23112416      -0.44894239       1.80465388
H       -0.83529782       1.95166302       0.67955816
H       -1.17699444       0.92869580      -0.46292633
H       -0.82797527      -0.85830438       1.01855302
H       -0.43165997       1.66368175       1.50255132
H       -2.08317757       0.04610568       1.51785064
H       -1.51117325      -0.52307695       0.15130696
H       -1.98412728       1.01308906       0.07510287
H       -0.98821670      -0.82152879       0.98243070
H       -2.05292273      -1.18415952      -0.31510314
H       -2.21130490      -0.92968154       1.22335017
H       -1.76177657       0.93989646       1.73209429
H       -2.14118528       0.13324142       0.46144691
