21
Properties=species:S:1:pos:R:3 pbc="F F F"
H        0.00000000       0.00000000       0.00000000
H       -0.12270200      -0.91159266      -0.45526573
H       -0.80215883       0.61471456      -0.17886049
H       -0.96005720      -0.92849165      -0.95186573
H       -1.32907379       0.05893576      -0.78013527
H       -1.40769923       0.43738997      -1.67380834
H       -0.84161496      -1.04649973      -1.91108751
H        0.58974993      -0.99598587      -1.11355972
H        0.87157917       0.43148959      -0.32785726
H        0.57978582       1.28913200      -0.81017470
H       -0.38840461       1.37352526      -0.75062615
H       -0.77034396       1.32284868      -1.64483821
H        0.77595562       1.20017695      -1.81363297
H        1.23874784      -0.26532716      -0.98585242
H       -1.14986014      -0.23283893      -2.34812522
H        0.11860919      -1.16450787      -2.02110791
H        1.19302928       0.17444929      -1.85335886
H        0.45603409      -0.41084719      -2.53705454
H       -0.33274019       0.19865066      -2.79472971
H        0.58046496      -0.38177201      -2.46057105
H        0.05734769       0.79274464      -2.39423466
