21
Properties=species:S:1:pos:R:3 pbc="F F F"
H        0.00000000       0.00000000       0.00000000
H       -0.90169489       0.25064358      -0.26867270
H        0.19018230       0.34709048       0.88961780
H       -1.40299070      -0.64403653      -0.30834684
H        0.47652030      -0.44730854       1.47293973
H       -0.86229712      -1.43843555       0.05207580
H       -1.30171406      -1.86992514       0.87308335
H       -2.15839720      -1.34397364       1.07994771
H       -0.26357555      -0.71150041       2.13307953
H       -0.67757273      -1.75191700       1.61104178
H       -1.16297936      -1.13720250       2.27423882
H       -2.07004809      -0.59883845       0.24586138
H       -2.00744605       0.26600593       0.68879032
H        0.03331784      -1.02440715       0.05295134
H       -2.08058167      -0.71783435       1.89179468
H        0.20926490      -1.21916568       1.04513860
H       -0.96130538      -1.37258303       1.97750401
H       -1.27302766       0.83646441       0.48779923
H       -0.62101108       0.92085761       1.20600045
H       -2.08828855       0.19901073       1.80419540
H       -0.61622036      -1.68271375       1.44139743
