21
Properties=species:S:1:pos:R:3 pbc="F F F"
H        0.00000000       0.00000000       0.00000000
H        0.24483983      -0.86484438      -0.37437752
H       -0.12575935       0.55577880      -0.78952855
H        0.30154592      -0.80868918      -1.45036936
H        0.04941487       0.09796774      -1.70029747
H       -0.88094389      -0.15966894       0.50176442
H       -1.11745024       0.81997067      -0.79823107
H       -0.38046819      -1.47893512      -1.82313061
H       -1.00558984      -0.89574432      -2.28914809
H       -1.08107173      -1.16559196       0.46446097
H       -1.55502641       0.45411858      -1.65146208
H       -0.44066048      -1.50071883      -0.10269028
H       -0.72881252       0.08357483      -2.15628624
H       -0.80908906      -1.94859612      -1.08572745
H       -1.56968498       0.36802828       0.05991352
H       -1.88916230      -1.18157744       0.02279145
H       -0.87823665      -1.86657095      -0.95592135
H       -1.78116119      -1.70752907      -0.85187113
H       -1.95687342      -1.07178962      -1.70217395
H       -1.67638826      -1.67613626      -0.83554822
H       -1.05580068      -0.51125944      -0.59846580
