9
Properties=species:S:1:pos:R:3 pbc="F F F"
H        0.00000000       0.00000000       0.00000000
H        0.30968034       0.89379078      -0.23086154
H       -0.50760633       0.56143856      -0.75517881
H        0.61826962      -0.08895500      -0.81434244
H        0.63743281       0.54670030      -1.07948828
H       -0.05464178       0.46682382      -1.24603796
H       -0.17797653      -0.30777830      -0.66911423
H       -0.23235959       0.24824849      -0.62373459
H        0.32397801       0.85133195      -1.04541993
