7
Properties=species:S:1:pos:R:3 pbc="F F F"
H        0.00000000       0.00000000       0.00000000
H        0.44047090       0.80291802      -0.09821343
H        0.00000000       0.63587439       0.73737687
H        0.61735135      -0.18477097       0.72993016
H        1.10707963       0.53872615       0.63606119
H        1.02172983       0.05341591      -0.08086297
H        0.95301193       0.82064533       0.66195244
