21
Properties=species:S:1:pos:R:3 pbc="F F F"
H        0.00000000       0.00000000       0.00000000
H       -0.01035373      -0.77460212      -0.58986890
H       -0.50334245      -0.19141132      -1.19394803
H        0.74012828      -0.62312132      -1.19144273
H        0.40124983       0.02642718      -0.90703321
H       -0.44280517       0.09807859      -1.03671360
H        0.29238418       0.37257829       1.36768854
H        0.34314266       0.32381397       1.36831009
H        0.29491130       0.32381397       1.37950969
H        1.92734885      -1.40753603      -1.45616174
H        1.97583079      -1.09222746      -2.37610245
H        1.91805458      -1.36484790      -1.58793545
H        1.94296527      -1.36484790      -1.50433254
H        1.95320499      -1.36484790      -1.46192694
H        0.34778011       0.22517416       1.38680232
H        1.96715391      -1.32126617      -1.51062465
H        0.24420588       0.37257829       1.37710714
H        0.34566966       0.27465954       1.37838662
H        1.94296527      -1.36484790      -1.50433254
H        0.34314266       0.32381397       1.36831009
H        1.93124378      -1.36484790      -1.54635262
