12
Properties=species:S:1:pos:R:3 pbc="F F F"
H        0.00000000       0.00000000       0.00000000
H        0.63772744       0.77136850       0.22719663
H       -0.43388808       0.81647241       0.44546363
H        0.53526491       0.27238879      -0.60261154
H       -0.49697104       0.61471456      -0.65457600
H       -0.00925434       1.36837530      -0.27749658
H       -0.78590989       0.89245474       0.34717339
H       -0.47925407       0.70262086      -0.31469384
H        0.60273290       0.42386958       0.35684794
H        1.40856016       0.25457633      -0.06375909
H        0.69907939       0.01734538      -0.38913721
H       -0.02331095       0.76587713      -0.22144465
