7
Properties=species:S:1:pos:R:3 pbc="F F F"
H        0.00000000       0.00000000       0.00000000
H        0.17388797      -0.66108263       0.69339287
H        0.09433036      -0.87984765      -0.40623978
H        0.16656882      -1.54093027       0.27640918
H        0.82255322      -0.83185035       0.15413481
H       -0.50834727      -0.85543609       0.12592050
H        0.20702440      -0.10003912      -0.02927068
