9
Properties=species:S:1:pos:R:3 pbc="F F F"
H        0.00000000       0.00000000       0.00000000
H       -0.90169489       0.25064358      -0.26867270
H       -0.16041759       0.49897972      -0.82057685
H       -0.70791817      -0.73873925      -0.46075642
H        0.21539718      -0.50912571      -0.84558153
H       -0.70318365      -0.27238879      -1.22519970
H       -1.06057334      -0.05455029      -0.34606385
H       -0.15941381      -0.96046287      -0.01261651
H       -0.67546105      -0.36636889      -0.22769800
