6
Properties=species:S:1:pos:R:3 pbc="F F F"
H        0.00000000       0.00000000       0.00000000
H        0.68725604      -0.43977645       0.53135377
H        0.66516721       0.52565467       0.65591556
H        1.36006641       0.08792076       0.06560394
H        0.71897709       0.61460966      -0.36512083
H        0.79753721      -0.40701765      -0.42368609
