6
Properties=species:S:1:pos:R:3 pbc="F F F"
H        0.00000000       0.00000000       0.00000000
H        0.87747955       0.49504808      -0.19565487
H        0.69319969      -0.34251389       0.36813116
H        0.41729054      -0.81366080      -0.33449313
H        1.26516354      -0.41654459      -0.46402735
H        0.48269945      -0.06945410      -0.92807376
