7
Properties=species:S:1:pos:R:3 pbc="F F F"
H        0.00000000       0.00000000       0.00000000
H       -0.61304885      -0.15966894      -0.80746567
H       -0.73403192       0.55622131       0.45292252
H       -1.45193219       0.30387914      -0.44042102
H       -1.04227710      -0.25743949       0.01588482
H       -0.59403175       0.79331660      -0.42601073
H       -0.99471039       0.44717178       0.34618774
