9
Properties=species:S:1:pos:R:3 pbc="F F F"
H        0.00000000       0.00000000       0.00000000
H        0.14728610      -1.02954066      -0.28719354
H        0.94228834       0.22961354       0.33569944
H        0.67551780      -0.25817215      -0.71061522
H        1.08897293      -0.71249014      -0.04410067
H        0.36336613      -0.60794842       0.20661490
H        1.03157294       0.35400045      -0.67913067
H        0.05903554       0.37272638      -0.21228209
H        1.32323885      -0.55759221      -0.30865300
