6
Properties=species:S:1:pos:R:3 pbc="F F F"
H        0.00000000       0.00000000       0.00000000
H       -0.30729049       0.46966103      -0.79564559
H       -0.67140102      -0.28399965      -0.29817197
H       -0.23035052      -0.40200776      -1.15817738
H        0.20959878      -0.80995119      -0.27497318
H        0.49641725      -0.12438690      -0.88961881
