8
Properties=species:S:1:pos:R:3 pbc="F F F"
H        0.00000000       0.00000000       0.00000000
H        0.13252793       0.60990006       0.74734145
H       -0.28541520       0.97931916       0.11311982
H       -0.96292794       0.64696693       0.80870765
H       -0.55580175      -0.29513675       0.80513489
H       -0.99647498       0.19475858      -0.14976865
H       -0.46428579       0.43056071       0.33700764
H       -0.06435660      -0.22442892       0.15783703
