21
Properties=species:S:1:pos:R:3 pbc="F F F"
H        0.00000000       0.00000000       0.00000000
H       -0.07115869       0.77136850       0.67323917
H        0.24749900       0.78826749      -0.24666989
H       -0.79955524       1.03556037       0.00021243
H        0.86012393       0.48822188       0.69776201
H        1.09686148       0.14113140      -0.18061393
H       -0.65925610       0.20382935       0.48662847
H       -0.58025903       0.44973952      -0.81345022
H       -0.20078772       0.45447293      -0.33498305
H        0.27499765       0.01757306       0.26156026
H        0.15126598       0.50698352      -0.02147473
H       -0.26461023       1.47768497      -0.42859060
H       -0.18590337       1.21846247      -0.30772546
H       -0.35507378       1.04606509      -0.41048124
H       -0.32792920       1.06706202      -0.37783515
H       -0.97313529       1.45492852       0.97905236
H       -0.97313529       1.45492852       0.97905236
H       -0.97313529       1.45492852       0.97905236
H       -0.97313529       1.45492852       0.97905236
H       -0.97313529       1.45492852       0.97905236
H        0.04356033       1.39355755      -0.09638982
