8
Properties=species:S:1:pos:R:3 pbc="F F F"
H        0.00000000       0.00000000       0.00000000
H       -0.19310522      -0.77460212      -0.55746114
H       -0.57758403      -0.55577880       0.55278158
H       -0.50176805      -1.42304254       0.01924509
H        0.42309660      -0.81366080       0.32711822
H        0.49617863      -1.33408749      -0.20327079
H       -0.89624166      -0.57267779      -0.36712748
H       -0.43673363      -0.92740691      -0.05004002
