7
Properties=species:S:1:pos:R:3 pbc="F F F"
H        0.00000000       0.00000000       0.00000000
H       -0.93989587      -0.24138860      -0.47165081
H       -0.48187366       0.36585209       0.82901984
H        0.13936186      -0.89468008       0.48316640
H       -0.68210632      -0.47867537       0.50479752
H       -0.17223144      -0.35669580       0.16919410
H       -0.92322350       0.20105636       0.09949416
