21
Properties=species:S:1:pos:R:3 pbc="F F F"
H        0.00000000       0.00000000       0.00000000
H       -0.33100656      -0.58582085      -0.77496612
H        0.18204001       0.18554765      -1.21666491
H        0.38986501       0.60491586      -0.24451959
H        0.74857461      -0.27493179      -0.45725510
H        0.35376492      -0.71020776      -0.02068520
H        0.67656398      -0.63923675      -0.96277553
H        0.68022728      -0.32418185      -0.26749980
H       -0.49066946       0.74820852      -0.47356993
H       -0.49066946       0.74820852      -0.47356993
H       -0.49495199       0.71654510      -0.47468394
H       -0.09585735       1.31362224      -0.37086886
H       -0.07176125       1.33061337      -0.36460081
H       -0.09585735       1.31362224      -0.37086886
H       -0.28315547       1.12505901      -0.41959006
H       -0.41426560       0.85745203      -0.45369530
H       -0.09585735       1.31362224      -0.37086886
H       -0.38450322       0.94245613      -0.44595331
H       -0.09585735       1.31362224      -0.37086886
H       -0.35997656       0.99714887      -0.43957326
H       -0.02193055       1.36195278      -0.35163853
