8
Properties=species:S:1:pos:R:3 pbc="F F F"
H        0.00000000       0.00000000       0.00000000
H       -0.51304650      -0.77136850      -0.44169885
H       -0.19817194      -1.27034819       0.33285528
H        0.28969294      -0.41200536       0.76801360
H        0.57892227      -0.83756196      -0.12908444
H       -0.29468298      -0.56530505       0.42904395
H        0.40295982      -0.65336043      -0.75002873
H        0.14598987      -1.36628270      -0.22653455
