21
Properties=species:S:1:pos:R:3 pbc="F F F"
H        0.00000000       0.00000000       0.00000000
H        0.58115071      -0.52769721      -0.57607329
H       -0.13148504      -1.18877983      -0.63247353
H        0.80766249      -0.95918679       0.32716149
H       -0.09438723      -0.87935537       0.15902115
H        0.64204943      -0.73181123       0.01690666
H       -0.86223972      -1.88692462      -1.66855574
H       -0.90010965      -1.75134683      -1.72224879
H       -0.99700081      -1.79729080      -1.62013340
H       -0.99700081      -1.79729080      -1.62013340
H       -0.89815038      -1.88692462      -1.64227223
H       -0.92558908      -1.79729080      -1.67841268
H       -0.96180630      -1.79729080      -1.64989996
H       -0.86223972      -1.88692462      -1.66855574
H       -0.92558908      -1.79729080      -1.67841268
H       -0.92558908      -1.79729080      -1.67841268
H       -0.99700081      -1.79729080      -1.62013340
H       -0.92075109      -1.65748167      -1.75151467
H       -0.88839322      -1.79729080      -1.70563698
H       -0.94920170      -1.70472515      -1.70951343
H       -0.89815038      -1.88692462      -1.64227223
