21
Properties=species:S:1:pos:R:3 pbc="F F F"
H        0.00000000       0.00000000       0.00000000
H        0.36038706      -0.22961354      -0.93312520
H       -0.39019543      -0.77136850      -0.55322880
H       -0.18911934      -0.61988771       0.38734704
H        0.63896096      -0.24143350       0.04221463
H        0.26962227      -1.13611364      -0.29904836
H        0.39385176      -1.07841265      -0.45722485
H        1.40523362      -0.25741905       0.55300665
H        0.49935389      -0.84216458       0.51323372
H        0.82784873      -0.79648864      -1.33464575
H        0.77003545      -0.79648864      -1.41816163
H       -1.41532588      -0.66872811       0.03066075
H       -1.41532588      -0.66872811       0.03066075
H       -1.41532588      -0.66872811       0.03066075
H       -1.41532588      -0.66872811       0.03066075
H       -1.41532588      -0.66872811       0.03066075
H       -1.41532588      -0.66872811       0.03066075
H       -1.41532588      -0.66872811       0.03066075
H       -1.41532588      -0.66872811       0.03066075
H       -1.41532588      -0.66872811       0.03066075
H       -1.41532588      -0.66872811       0.03066075
