6
Properties=species:S:1:pos:R:3 pbc="F F F"
H        0.00000000       0.00000000       0.00000000
H       -0.81573808      -0.52769721      -0.06456009
H       -0.55569863       0.25064358       0.75923496
H       -1.37774467      -0.02871749       0.55449462
H       -0.78686738       0.52750385      -0.07384109
H       -0.58198494      -0.58449626       0.63154835
