11
Properties=species:S:1:pos:R:3 pbc="F F F"
H        0.00000000       0.00000000       0.00000000
H        0.36329272       0.89468008       0.34769225
H        0.77333450       0.52595156      -0.42267320
H        1.17529249      -0.26844746       0.08789888
H        1.28788304       0.98949969       0.33474800
H        0.76579159       0.01781246       0.68305922
H        1.26351237       0.07265460       0.41924119
H        0.92127645      -0.11800810       0.29220659
H        0.95094693       0.49555287       0.42873734
H        0.85347408       0.32994899       0.14434013
H        0.55284798       0.23525532       0.07319515
