7
Properties=species:S:1:pos:R:3 pbc="F F F"
H        0.00000000       0.00000000       0.00000000
H        0.97460508       0.08895500       0.30912116
H        0.49641725       0.12438690      -0.88961881
H       -0.37382233       0.89379078      -0.09724110
H        0.68547672       0.79463285      -0.13572842
H        0.68371814      -0.08709025      -0.77016735
H        0.20087266       0.64473379       0.10785285
