21
Properties=species:S:1:pos:R:3 pbc="F F F"
H        0.00000000       0.00000000       0.00000000
H       -0.06381270       0.34709048       0.90747839
H        0.76307017      -0.06227148       0.59643435
H        0.81040543       0.83151931       0.21308291
H        0.18769610      -0.74776566       0.97997475
H       -0.12001556       1.08216286       0.07324207
H       -0.85164094      -0.47002548       0.89771831
H       -0.36787009       0.17284209       0.26052845
H       -0.00774175      -0.35839620       0.54599279
H        0.46359760      -0.00021172      -0.15571073
H        0.11191791       0.43928626       0.54837894
H        0.39793640       0.40997899       0.25776756
H        0.61151695       1.02052915       1.00244379
H       -0.65131223       1.48553824       0.98728961
H       -0.65131223       1.48553824       0.98728961
H       -0.65131223       1.48553824       0.98728961
H       -0.68306267       1.48553824       0.96808124
H       -0.65802741       1.44860244       0.99884254
H       -0.65802741       1.44860244       0.99884254
H       -0.65131223       1.48553824       0.98728961
H       -0.61890709       1.48553824       1.00537205
