21
Properties=species:S:1:pos:R:3 pbc="F F F"
H        0.00000000       0.00000000       0.00000000
H       -0.47549847       0.19475858       0.88842231
H        0.28633800       0.79439902       0.58332199
H       -0.52097601       0.79439902      -0.38837877
H        0.57933682      -0.37845421       0.68498337
H        0.13394275       0.70575595       0.70683056
H       -0.71838498       1.65679348       0.39880601
H       -0.71821594       1.60532498       0.29545084
H        0.65066713       0.22841299       1.69936919
H        1.09784317       1.09325743       1.71114433
H        0.41715252       1.22666728       1.74715102
H        0.01827544       0.28456360       1.82876933
H        0.23553073       0.57550347       0.88989353
H        0.33434185       0.67594719       0.91305274
H        0.34692270       0.45490965       0.19759889
H        0.32812688       0.32414395      -0.87322992
H        0.32812688       0.32414395      -0.87322992
H        0.32812688       0.32414395      -0.87322992
H        0.29083112       0.28705257      -0.86673421
H        0.79349059       0.84714270      -0.43555623
H       -1.58894348       0.41091573      -0.04964536
