7
Properties=species:S:1:pos:R:3 pbc="F F F"
H        0.00000000       0.00000000       0.00000000
H        0.45279220       0.75366068      -0.41837266
H        0.90292984      -0.06000012      -0.70715141
H        0.60653895      -0.70907992      -0.27816746
H        1.03275430       0.06552219       0.12974545
H        0.01279819       0.02184945      -0.88626003
H        0.37690872      -0.73181123      -0.38878641
