7
Properties=species:S:1:pos:R:3 pbc="F F F"
H        0.00000000       0.00000000       0.00000000
H       -0.49101692      -0.19475858      -0.87994057
H        0.15459204       0.52778929      -0.54165453
H       -0.86466610       0.43977645       0.08372600
H       -0.54005402       0.70396829      -0.85337245
H       -0.08757130       0.96923625       0.03119811
H       -1.11861515       0.24501787      -0.27929252
