7
Properties=species:S:1:pos:R:3 pbc="F F F"
H        0.00000000       0.00000000       0.00000000
H        1.00909960       0.15966894       0.09771150
H        0.45088935      -0.48319864       0.67081404
H        0.25409254       0.39664900       1.03850961
H        0.44320884       0.89562869       0.22406799
H        1.01627088       0.35436332       0.85013938
H       -0.19258621       0.31530851       0.90086180
