6
Properties=species:S:1:pos:R:3 pbc="F F F"
H        0.00000000       0.00000000       0.00000000
H        0.88791460       0.34709048      -0.19798161
H        0.77090466      -0.15188923       0.62990052
H        1.16978180       0.79021442       0.71151888
H        0.15988317       0.46354809       0.90160102
H        0.34126163       0.98497301       0.13797963
