21
Properties=species:S:1:pos:R:3 pbc="F F F"
H        0.00000000       0.00000000       0.00000000
H       -0.53245163       0.67024595      -0.56620628
H       -1.09635377      -0.07716256      -0.98658574
H       -1.16719747       0.32315546       0.08547372
H       -1.27423275       1.19619751      -1.04208410
H       -1.90346694       0.46438628      -0.91332996
H       -1.24690580       0.22696126      -1.13093960
H       -0.60461295      -0.40939552      -0.47219557
H       -0.67745322      -0.68549418       0.13862070
H       -2.09600210       0.16348653       0.49186245
H       -2.11880684       0.95788556       1.14127290
H       -1.71502352      -0.61111557       0.94231540
H       -1.35785627       0.45871258       0.99943304
H       -1.17254496       0.12161613       1.07330847
H       -1.14174056       0.44679403       0.88711202
H       -0.77790910       0.23293644       0.44595551
H       -1.52256250       0.02807342       0.63033175
H       -2.10820079       0.20535684       0.46053922
H       -1.45173454       0.27069482       0.61710328
H       -1.30166805       0.79308987       0.89779472
H       -2.03635216       0.81436223       2.31385851
