21
Properties=species:S:1:pos:R:3 pbc="F F F"
H        0.00000000       0.00000000       0.00000000
H       -0.47398776      -0.23709527       0.75329894
H       -0.23690112       0.75228751       0.88833785
H       -1.19847226      -0.05232430       0.12956601
H        0.47007442      -0.40495235       1.24796844
H        0.50662506       0.47489530       0.83252525
H       -0.11449546       0.32341450       1.56691194
H       -0.52765465       0.70461756       0.62387651
H       -0.72106528       0.86932355       0.42414212
H        0.26419818       0.81914079       0.11559718
H        0.85490137      -0.70928603       0.41037938
H        0.88158190      -0.70928603       0.34940100
H       -0.38708958       0.06163374      -1.11746025
H       -0.42658174       0.02055283      -1.10451794
H       -0.42606777       0.06163374      -1.10318720
H       -0.38708958       0.06163374      -1.11746025
H       -0.42658174       0.02055283      -1.10451794
H       -0.42606777       0.06163374      -1.10318720
H       -0.42658174       0.02055283      -1.10451794
H       -0.42606777       0.06163374      -1.10318720
H       -0.42658174       0.02055283      -1.10451794
