6
Properties=species:S:1:pos:R:3 pbc="F F F"
H        0.00000000       0.00000000       0.00000000
H        0.45934626      -0.55622131       0.73002923
H        0.91896635       0.36585209      -0.27381918
H        1.32889366      -0.07392436       0.49209020
H        0.82195300      -0.49897972      -0.15321061
H        0.52759910       0.46966103       0.67016304
