21
Properties=species:S:1:pos:R:3 pbc="F F F"
H        0.00000000       0.00000000       0.00000000
H       -0.78841746      -0.36585209      -0.54577839
H       -0.24384277       0.93864530       0.08687132
H        0.87942857      -0.08895500      -0.52155191
H        1.24538302       0.79089266      -0.72156775
H       -1.04260433       1.15648377      -0.42556137
H        0.47530895       1.43762505      -0.33962715
H        1.29932296       0.84430856      -1.74507213
H       -0.41821456      -0.66411686      -1.33465469
H       -1.39713049       0.36595914      -0.75067270
H       -0.85100734      -0.16513714      -2.05003595
H        1.07304549      -0.11135674      -2.04310942
H        0.58941376      -0.46935827      -1.34349728
H       -1.41409254       0.48396724      -1.71703041
H        0.07313883       1.96357656      -1.12381983
H        0.25762987       0.15283513      -2.60757732
H       -0.53802639      -0.31071296      -2.15439081
H       -0.90485251       1.73341620      -1.13019693
H        0.49352232       1.64826798      -1.94352651
H       -1.06849599       1.26375520      -1.96727526
H        0.03255275       1.09989703      -2.58578300
