20
Properties=species:S:1:pos:R:3 pbc="F F F"
H        0.00000000       0.00000000       0.00000000
H       -0.58002573       0.67024595       0.51736289
H       -0.09239724       1.50197697       0.65338820
H       -0.76757526       0.29179174       1.39466476
H        0.83253855       0.43977645      -0.24806678
H        0.14156392       1.65345776       1.58632803
H       -0.23978096       0.89979708       2.07071686
H        0.50969398       0.34357578       2.49759984
H        0.72079635       1.35868430       0.24531794
H        1.16294789       1.63564527       1.68522906
H        1.38512361       0.86104316       2.23175478
H        1.45679057       1.48307121       0.94970721
H        1.94258833       0.25114310       1.71666646
H        1.42288828      -0.68941802       1.61979532
H        0.18329206      -0.77460212       0.56076425
H       -0.27278355      -0.65659404       1.41289687
H        1.55840373      -0.02988458       0.19981632
H        0.45373675      -0.63969505       2.06092739
H        1.93384767       0.63427210       0.94552076
H        1.23745263      -0.80742610       0.67124456
