20
Properties=species:S:1:pos:R:3 pbc="F F F"
H        0.00000000       0.00000000       0.00000000
H        0.36038706      -0.22961354      -0.93312520
H       -0.71824318      -0.69681674       0.22780931
H       -0.78657824      -1.28000760      -0.54890156
H       -0.24409366      -0.90155339      -1.26342511
H       -0.51695317      -2.24808311      -0.34044024
H        1.31604779      -0.41438451      -0.90796041
H        0.76462483      -0.11800810       0.59117162
H        1.37193143      -1.34348226      -1.19381940
H        0.55264449      -0.87166876       1.17006779
H        1.60009193      -0.36096859       0.07681859
H        1.75199962      -1.89970350      -0.41955209
H        1.88417029      -1.30307221       0.36847585
H       -0.39135650      -1.25259554       0.95740914
H        1.20393372      -1.58074868       1.02484739
H       -0.29630983      -2.17102623       0.64835870
H        0.25664634      -2.49872661      -0.87596095
H        0.40169793      -1.61063337      -1.43141270
H        1.10742235      -2.52505183      -0.21510783
H        0.69704801      -2.33440924       0.67395806
