21
Properties=species:S:1:pos:R:3 pbc="F F F"
H        0.00000000       0.00000000       0.00000000
H        0.12256700       0.83228827       0.37498182
H       -0.70568484      -0.39891118       0.62944639
H        0.90296930      -0.46354809       0.15196526
H       -0.26890266      -1.19331026       1.11056530
H        1.04719234       0.91668147       0.66825062
H        0.73266292      -1.21112275       0.88724256
H        1.23904693      -1.01636422       1.75843048
H        1.51652479       0.17232630       0.56095707
H       -1.02685916       0.32363671       1.28373647
H       -0.47239822       0.98376906       1.13071382
H        0.63146007      -0.76572061       2.47681546
H        0.06809002       1.13524985       1.92631853
H        1.01388752       1.13451993       1.61666930
H       -0.80557346      -0.02345377       2.16613197
H       -0.41154456      -0.96555746       2.06363463
H       -0.32938695      -0.92538953       2.15339208
H       -1.41949368      -0.69377178       3.00491333
H       -1.43286395      -0.65729284       3.02318096
H       -1.43286395      -0.65729284       3.02318096
H       -1.41949368      -0.69377178       3.00491333
