21
Properties=species:S:1:pos:R:3 pbc="F F F"
H        0.00000000       0.00000000       0.00000000
H        0.46564069       0.84879911      -0.10382564
H       -0.56044048       0.05067664      -0.79460645
H        0.58939195      -0.77460212      -0.02587739
H        0.16592506       1.31234717      -0.96905249
H        1.44635463       0.58460724      -0.25122538
H       -0.36629462      -0.78688532      -1.35507154
H       -0.39133924       0.84507567      -1.42202878
H        0.05086884      -0.48843351      -2.24401760
H        0.98764288       1.36576307      -1.58162951
H        1.52869809      -0.38462901      -0.20807905
H        0.04326413       0.48490694      -2.26874495
H        0.36019087      -1.35779285      -0.77113998
H        1.84652936      -0.71698117      -1.12560248
H        0.98157775      -0.77158010      -2.28488064
H        1.70509303       0.95640111      -1.06612110
H        1.57414579       0.06598186      -2.31089759
H        0.79852641       0.86678338      -2.39607120
H        1.19647360      -1.18094206      -1.42796552
H        2.00810814       0.13992870      -1.60914826
H        0.93308520       0.79779309      -2.27146912
