20
Properties=species:S:1:pos:R:3 pbc="F F F"
H        0.00000000       0.00000000       0.00000000
H        0.15607943       0.96046287      -0.03480161
H        0.69647527      -0.43977645      -0.51921076
H        1.25811708       0.26930347      -0.87952328
H        0.89483923       1.13414788      -0.61849785
H        2.14357638       0.15129536      -0.49209979
H        0.06243046      -0.23709527       0.88782102
H        0.29251230       0.55751491       1.40135574
H        2.14357638      -0.60236531       0.12438741
H        1.19799447      -1.00127649       0.11608951
H        1.56302428       1.57392430      -0.06335253
H        1.15961242       0.40603411       1.81759095
H        1.24536252       1.66287935       0.90850234
H        2.37365818       0.94590551       0.02143499
H        0.83401310      -0.88326842       1.01144004
H        0.30422309       1.26659489       0.73417550
H        2.33375859      -0.25527483       1.01400518
H        1.78652334       1.12858200       1.44579649
H        1.50142980      -0.48488837       1.56882977
H        2.47255349       0.69526196       0.95709431
