21
Properties=species:S:1:pos:R:3 pbc="F F F"
H        0.00000000       0.00000000       0.00000000
H       -0.90169489       0.25064358      -0.26867270
H        0.19018230       0.34709048       0.88961780
H       -1.36522222      -0.66094911      -0.35507333
H        0.47652030      -0.44730854       1.47293973
H       -0.80057847      -1.45534813      -0.03346571
H       -1.24679732      -1.85425925       0.80025041
H       -2.12070799      -1.35921121       1.01127470
H        0.46511620      -1.24170756       0.82322901
H       -0.62265599      -1.73625112       1.53820872
H       -1.10806262      -1.12153649       2.20140576
H       -0.12203240      -0.58241302       2.08746099
H       -0.57924324      -1.43121219       1.95122862
H        0.09438421      -1.02162731       0.02632874
H       -0.33805746      -1.82645309       1.24407578
H       -0.79462129       0.18895549       2.01039720
H       -2.06770515      -0.61027247       0.31724381
H       -1.23627138       0.77834082       0.47809047
H       -1.99003470       0.27936110       0.83992058
H       -0.60953593       0.71665269       1.21331501
H       -1.79096246      -0.16044042       1.78823912
