21
Properties=species:S:1:pos:R:3 pbc="F F F"
H        0.00000000       0.00000000       0.00000000
H       -0.04850490       0.68549418       0.68978679
H       -0.79756612      -0.08439321      -0.55211145
H       -1.35400367       0.66301531      -0.12190017
H       -0.87880117       1.06192648       0.69564271
H        0.11625943      -0.95566529       0.35568443
H       -1.38792670       0.87715554       1.50478530
H       -1.20296252      -0.96424085      -0.45421988
H        0.01455789       0.19044611       1.58660018
H       -2.10862064      -0.87528586       0.02032670
H       -0.69103420      -1.51188660       0.05200914
H       -1.19210696      -1.76253021       0.84835374
H       -0.79124069      -1.41543972       1.66499031
H       -2.23076940       0.06335944       0.24854946
H       -2.12040806      -1.33104062       0.77488506
H       -1.37178230      -0.75435710       2.08212590
H        0.00707090      -0.94577873       1.36469376
H       -0.87067050       0.31483302       2.09080505
H       -2.22360063      -0.69516623       1.50500560
H       -2.16448808       0.16796723       0.26715788
H       -2.18659234       0.29133469       1.23595250
