20
Properties=species:S:1:pos:R:3 pbc="F F F"
H        0.00000000       0.00000000       0.00000000
H        1.00909960       0.15966894       0.09771150
H        1.49480355      -0.42615193      -0.59093171
H        1.94420457       0.15703887      -1.22810364
H        0.82929629      -0.89581299      -1.12439156
H        1.21144402       1.13898814      -0.13318825
H        1.56318617       0.07264566      -2.12015963
H        0.91333497      -0.52996087      -2.07959509
H       -0.39500591       0.83173102      -0.31663033
H        0.31901395       1.57047772      -0.39910036
H       -0.11852725      -0.69681674      -0.74412471
H        0.02715862      -0.06641278      -2.31011295
H       -0.59400254      -0.25704029      -1.47116029
H       -0.75412327       0.72010171      -1.15741062
H        1.17092705       0.92144477      -2.39169931
H        1.74419641       1.07546949      -0.97405088
H        0.19214717       0.92297006      -2.52742457
H       -0.30614939       1.39034772      -1.79255915
H        0.33536360       1.85362434      -1.33056235
H        1.31778228       1.59727991      -1.56356430
