21
Properties=species:S:1:pos:R:3 pbc="F F F"
H        0.00000000       0.00000000       0.00000000
H       -0.02074104      -0.97334045      -0.01546210
H        0.66320157      -1.40482998      -0.64741397
H        0.63820451       0.28314662      -0.67866325
H        1.01802480      -0.53051418      -1.05516505
H        0.25211653       0.34709048       0.87408602
H        1.15761375       0.81063855       0.73799121
H        0.37545118      -0.42751163       1.45100975
H        1.35891080      -1.90380967      -0.18365896
H        1.36387575      -0.40969917       1.72673345
H        1.86885476       0.31559047       1.28788900
H        0.17271449      -1.22212172       0.92607790
H        1.38822293       0.80909818      -0.21587676
H        2.18958616      -1.40482998      -0.27883583
H        2.00836587      -0.65116930      -0.86808592
H        1.10960174      -1.85039377       0.81048173
H        2.23844767       0.14344084      -0.35455114
H        1.79196095      -1.29417253       1.33804941
H        2.55878210      -0.13970578       0.52024865
H        1.93956900       0.17560273       1.20231652
H        1.26013589       0.62640518      -0.42729914
