21
Properties=species:S:1:pos:R:3 pbc="F F F"
H        0.00000000       0.00000000       0.00000000
H       -0.02481474      -0.91159266      -0.47085762
H        0.82551742       0.08439321       0.50937194
H       -0.82827353      -1.38125372      -0.18461773
H        0.73917973      -1.46781397      -0.07053998
H        1.35861385      -0.79229617       0.48596621
H        0.47691369       0.24406216       1.46137261
H        1.35861385      -1.13938665       1.39568543
H       -0.55147064      -2.15262222       0.43319681
H        0.39712971      -2.19962525       0.47307304
H       -1.37749767      -0.67663616       0.42035684
H        0.84197921      -0.49651909       2.00653219
H       -1.44475973      -1.04248822       1.37688804
H       -0.81640792       0.18100625       0.47468737
H       -0.86644995      -1.99295330       1.39684486
H        0.03149474      -0.99156713       2.39559031
H       -1.00129843      -1.90733266       1.43560076
H       -0.49658638       0.22716315       1.45282972
H        0.09035727      -1.94723248       2.02604628
H       -0.83863640      -0.50464809       1.99644279
H        0.88155675      -1.98818576       1.39149904
