20
Properties=species:S:1:pos:R:3 pbc="F F F"
H        0.00000000       0.00000000       0.00000000
H        0.12529835      -0.08895500      -1.01474690
H        0.49320230       0.82263768      -1.30965257
H        0.26951024       0.89379078       0.27670053
H        0.62471175       1.39277053      -0.48020896
H       -0.13324592       1.29229867      -1.88848066
H       -0.95310330      -0.11800810       0.16040275
H        0.04578954       2.23033237      -0.60929352
H       -0.94976127       0.67758411      -1.98203528
H       -1.41968417      -0.20696309      -0.74938464
H       -0.40133277       2.15050101      -1.41057158
H       -0.60859138       2.21343327       0.11151218
H       -0.69090205      -0.22477555      -1.47179949
H       -0.54097426       1.38883889       0.66575861
H       -2.05849218       0.58743596      -0.86845726
H       -1.53796887       2.12447834      -0.31471375
H       -1.33157611       0.83306009       0.54693240
H       -2.00164175       1.24778891      -0.05061689
H       -1.40960705       2.06154609      -1.24088383
H       -1.72730267       1.19670177      -1.55580366
