20
Properties=species:S:1:pos:R:3 pbc="F F F"
H        0.00000000       0.00000000       0.00000000
H        0.97460508       0.08895500       0.30912116
H       -0.57594448       0.05341591       0.84779638
H       -0.16042936       0.75366068      -0.59524691
H        0.08432567       0.14237091       1.62847197
H        1.01035750       0.21334189       1.32724369
H        1.27738750       0.87572753      -0.06189042
H        1.50647998       1.51160192       0.63899565
H       -0.89446127       1.30988193      -0.14232439
H        0.54326487       1.33927560      -0.60916638
H        1.41902208       1.14074874       1.48921144
H       -0.49816465       2.23728895       0.04791036
H        0.41303760       2.25418806      -0.29485169
H       -1.13500834       0.84802604       0.78374004
H        0.66900384       1.66670036       1.95199800
H       -0.12356156       1.11092162       2.05693078
H        0.89348179       2.39211583       0.52473396
H       -0.90591586       1.48390043       1.48462605
H        0.34839040       2.47650909       1.32711422
H       -0.57787246       2.35850096       1.05112123
