20
Properties=species:S:1:pos:R:3 pbc="F F F"
H        0.00000000       0.00000000       0.00000000
H        0.59380746      -0.49897972      -0.58861941
H        0.40353256      -0.23478785      -1.56192410
H       -0.60374576       0.52595156      -0.64202011
H       -0.41753405       0.37992671      -1.59797323
H        1.56540489      -0.23478785      -0.38981086
H       -0.07939193       1.19358754      -2.01231241
H       -0.17616290       1.87908173      -1.32762718
H        1.45995522       0.46202889       0.35627943
H        0.91013098       1.10463250      -2.26971364
H        0.76943260       2.24493384      -1.16848814
H        1.42462683       1.74050689      -1.74149156
H        1.17964125       0.21084172      -1.99301314
H       -0.46386707       1.47301340      -0.46434441
H        0.51765114       0.61350965       0.54909402
H        1.89304590       0.29979670      -1.26057553
H        0.21458870       1.52368999       0.23221186
H        2.04504323       1.24685860      -1.09314942
H        0.97687131       1.96346641      -0.18442082
H        1.73560953       1.35356641      -0.16444147
