21
Properties=species:S:1:pos:R:3 pbc="F F F"
H        0.00000000       0.00000000       0.00000000
H        0.21426670       0.05341591       1.00227761
H       -0.60280317       0.35186774       1.54693079
H       -0.30380380       1.18359876       1.95544493
H       -0.94604510       0.21783850      -0.07487299
H        0.61238211       1.36836970       1.68245423
H        0.89977485       0.73891008       1.09303653
H       -1.26956546       0.46848208       0.80862761
H       -1.49568665       1.41554403       0.80664331
H        1.11039996       1.17039967       0.18596560
H       -1.27879858       1.78139615      -0.12739933
H        0.58573937       2.20010066       1.17691040
H        0.87410885       2.16865396       0.21724971
H       -0.88562119       0.96492374      -0.60917544
H       -0.37311685       2.56595278       1.16849601
H       -0.62615669       2.61662936       0.22963309
H        0.04063588       1.18276227      -0.81570643
H       -0.90659720       1.90487015       1.64434195
H        0.26274008       2.06260991      -0.46272099
H        0.62117749       0.52167964      -0.39857075
H       -0.91176718       1.85532045       1.44983506
