21
Properties=species:S:1:pos:R:3 pbc="F F F"
H        0.00000000       0.00000000       0.00000000
H       -0.72715116       0.63587439       0.12237607
H       -1.52301490       0.19609794       0.47059798
H       -0.39821619      -0.87668937       0.35519502
H       -1.40001535      -0.76436496       0.57278919
H        0.70214248       0.25064358       0.62628645
H        0.44773841       1.08237457       1.06396556
H       -1.47069860      -0.95912355       1.57797420
H       -0.47134930       1.38082635       0.71823728
H       -1.07355738       1.36392736       1.48316908
H       -0.59665376       1.14608884       2.30363846
H        0.77482522      -0.43485060       1.31394613
H        0.61494219       0.02869749       2.21554708
H        0.43987870       1.02695179       2.05379128
H       -1.79525614       0.57819021       1.32224905
H       -0.22265762      -0.37021369       2.65443254
H        0.12528855      -1.15983605       1.12579978
H       -0.95994651       0.25140876       2.65133071
H       -0.54362166      -1.11762214       2.02858377
H       -1.78759313      -0.06234828       2.03433418
H        0.13269132      -1.13543463       1.25682771
