21
Properties=species:S:1:pos:R:3 pbc="F F F"
H        0.00000000       0.00000000       0.00000000
H       -0.30820453      -0.91843063       0.09775501
H        0.91605562      -0.05341591      -0.45968771
H        0.30508170       0.29845181       0.93336779
H        1.61497235       0.35594606       0.08068162
H        1.03310645      -1.00047779      -0.65316594
H        2.28540945      -0.39146245       0.29332805
H       -0.34175462      -1.10320163       1.05315804
H        0.16558205      -0.41062811       1.58590627
H        1.31239963       0.49321038       0.95989281
H        0.28667140      -1.58629870      -0.26204899
H        1.73846483      -0.14965719       1.63702917
H        1.89485526      -1.26466966      -0.16233441
H        1.04376674      -0.70543599       2.03271246
H        2.31895947      -0.57623339       1.24873114
H        1.24820268      -1.62386656       1.78220892
H        0.49055469      -1.95621872       1.17489052
H        0.24310154      -1.87780380       1.13059092
H        1.68603146      -1.96148634       0.56165659
H        2.04288006      -1.50585842       1.23209715
H        0.67448986      -2.20101333       0.46255210
