21
Properties=species:S:1:pos:R:3 pbc="F F F"
H        0.00000000       0.00000000       0.00000000
H        0.50421435      -0.31530851      -0.77097952
H        0.64806813      -1.37281752      -0.61252350
H       -0.73118019       0.43977645      -0.46907696
H        0.13231146      -1.84247851      -1.29184258
H       -0.29309627      -1.17223263      -1.94232130
H        0.11246538      -1.54067457       0.30893236
H       -1.53463900      -0.02988458      -0.18283707
H       -0.02311778      -0.19092160      -1.64262891
H       -0.82848036       0.30805811      -1.41797066
H       -1.57572556      -0.27513269      -1.64062285
H       -2.05614138      -0.45990366      -0.81411129
H       -0.26041162      -0.68549418       0.64058125
H       -1.23009539      -0.76988739       0.66611522
H       -1.24085724      -1.18672538      -1.97256541
H       -1.52358913      -1.87221956      -1.34151769
H       -1.51997864      -1.58798337       0.35785487
H       -1.20971513      -0.66575897       0.47909123
H       -0.66791368      -2.32975364       0.00272599
H       -0.66791368      -2.32975364       0.00272599
H       -0.66791368      -2.32975364       0.00272599
