21
Properties=species:S:1:pos:R:3 pbc="F F F"
H        0.00000000       0.00000000       0.00000000
H        0.50912565      -0.18477097       0.80914259
H       -0.05298162       0.04484257       1.63657045
H       -0.89978123       0.32798919       1.24821591
H       -0.84854573       0.31109020       0.27602750
H       -0.07416922      -0.91159266      -0.46564105
H        0.67534435      -1.19715059       0.83711636
H        0.19347069      -1.56300271       1.66613626
H        0.39651212      -1.63414049       0.09087268
H       -0.48854342      -2.23324871       1.29337502
H       -0.34723184      -2.27700806       0.38564387
H       -1.15558875      -1.96169949      -0.05617124
H       -0.20920733      -0.81279981       2.17820406
H       -0.96290970      -1.14803863      -0.55506182
H       -1.54405951      -0.38572654      -0.01385322
H       -1.93840814      -0.77296078       0.72294843
H       -1.83291054      -1.76694095       0.68990391
H       -1.54911745      -0.36359882       1.51600361
H       -1.08352876      -1.07267880       1.99401379
H       -1.38402367      -1.91794014       1.50960779
H       -1.44221687      -0.41622740      -0.12753645
