21
Properties=species:S:1:pos:R:3 pbc="F F F"
H        0.00000000       0.00000000       0.00000000
H        0.88791460       0.34709048      -0.19798161
H        1.06665421       0.06394386      -1.11227977
H        2.02108335      -0.30190822      -1.01986206
H       -0.23517345      -0.64286757      -0.76468211
H        1.86216450      -1.28122735      -1.28254580
H        1.56764531       0.09644690       0.45256025
H        0.38174188      -0.63287288      -1.42639041
H        1.20948744      -0.51345313       1.12174320
H        2.27630234      -0.28592268      -0.13501996
H        2.11055207      -1.83700609      -0.52262843
H       -0.20943585      -1.53077531      -0.52117562
H        0.87264496      -1.44089627      -1.50318289
H        0.20498277      -0.58582085       0.81738597
H        0.46337447      -2.05847263      -0.98692548
H        0.01895466      -1.61536145       0.55363071
H        2.33226919      -1.19413853       0.24606311
H        1.32293200      -2.33598590      -0.24203125
H        1.63344526      -1.37829757       0.97903800
H        1.01540637      -2.06379175       0.66889870
H        0.55056328      -2.09459734      -0.95568752
