20
Properties=species:S:1:pos:R:3 pbc="F F F"
H        0.00000000       0.00000000       0.00000000
H        0.52815789      -0.26419187       0.83939010
H       -0.27437809       0.92909771       0.09774981
H        0.06821725       1.27618814       0.94049382
H       -0.75623721      -0.52573669      -0.00663632
H       -1.24436069       1.01349092       0.08923778
H       -1.52308476       1.39194512       0.94196653
H       -0.75623721      -1.10892749       0.77307481
H       -2.03633833       0.68286520       1.36839056
H       -1.60959435       0.05782562       0.00780021
H       -2.08649802      -0.16001287       0.82826966
H        0.48297751       0.54437691       1.43088889
H       -1.56386876      -0.89108896       1.27141070
H       -0.75239861       1.60978365       1.49572659
H       -1.55943465       0.46502671       2.18885994
H       -0.03246480      -0.98673975       1.30516970
H       -1.27005768      -0.46407101       2.15570378
H        0.00489303       0.33831346       2.19069862
H       -0.34917927      -0.48005655       2.14762259
H       -0.76023012       1.02080548       2.20990491
