20
Properties=species:S:1:pos:R:3 pbc="F F F"
H        0.00000000       0.00000000       0.00000000
H        0.05321160       0.83173102       0.50344110
H        0.27657518       0.25064358      -0.89930242
H        0.38957092       1.62613010      -0.05254126
H        0.71109021       0.70734411       1.28128910
H        0.54639184       1.24002635      -0.93985546
H        0.66145134      -0.67024595       0.40813768
H        1.09264493      -0.24833614      -1.08126450
H        1.41648316       1.42989206       1.09779763
H        1.26495075       1.95848227       0.36766839
H        1.10847342      -0.23475957       1.19268310
H        2.23843622       0.93091238       0.94458699
H        1.87349772       0.39453143      -1.25537419
H        1.30873144      -0.83152694      -0.33209425
H        2.56585407       1.16052592      -0.00061089
H        1.94389856       1.77371132      -0.30534756
H        2.54786611       0.27652332      -0.56301433
H        2.10280561      -0.11037267       0.97097313
H        1.54074979       1.36434937      -1.09144855
H        2.17479587      -0.54838032       0.01115668
