20
Properties=species:S:1:pos:R:3 pbc="F F F"
H        0.00000000       0.00000000       0.00000000
H       -0.46163812      -0.66108263       0.54582143
H        0.72855580       0.37845421       0.52348810
H       -0.37010553      -1.50988173       0.07760906
H        0.10240829      -2.15274930       0.72319090
H        0.97263837      -2.41694117       0.24755853
H       -0.00946200      -0.67889506       1.46698558
H        1.02082825      -1.95339310      -0.66684008
H        0.72855580      -0.11659387       1.42251611
H        1.56308889      -0.61557359       1.47384417
H        0.34275833      -0.44427392      -0.73039383
H        0.34062764      -1.58555198       1.52590394
H        1.36361933      -1.53213608       1.58882320
H        2.08786869      -0.45590466       0.60641366
H        0.27296174      -1.42765641      -0.77924323
H        1.75135612      -2.05108905       0.80708945
H        1.60630739       0.14884067       0.04374477
H        1.81934762      -1.31052554      -0.61772704
H        1.31094873      -0.35988072      -0.67084509
H        2.22250223      -1.39000642       0.26945388
