20
Properties=species:S:1:pos:R:3 pbc="F F F"
H        0.00000000       0.00000000       0.00000000
H        0.38154608      -0.49897972      -0.74397767
H       -0.17729433      -0.72254789       0.70697600
H       -1.14240992      -0.73944688       0.83475387
H       -1.55652571      -0.09657931       0.15024436
H       -1.41145122      -1.64610386       0.60312724
H       -0.86218619       0.34709048      -0.29021394
H       -1.93840373      -1.53447461      -0.14399910
H        0.09320326      -1.58739233       0.35069507
H        0.41678378      -1.51135933      -0.57914597
H       -0.17833379      -1.95113575      -1.21199083
H       -0.61015534      -2.14508367       0.36436969
H       -2.10187244      -0.65280062      -0.51799113
H       -1.45603466      -2.06042624      -0.88157552
H       -0.25776577      -0.41458651      -1.47351110
H       -0.59035909      -1.29005313      -1.79617047
H       -1.25851870      -1.45052624      -1.61442637
H       -1.58750999      -0.53893358      -1.27665806
H       -0.61031669      -2.40751672      -0.54638863
H       -0.81861168       0.04425722      -1.14725626
