20
Properties=species:S:1:pos:R:3 pbc="F F F"
H        0.00000000       0.00000000       0.00000000
H        0.45279220       0.75366068      -0.41837266
H        1.17158663       0.43835217      -0.99454629
H       -0.88171709      -0.08439321      -0.40436822
H       -1.04885650       0.64741802      -1.02451158
H       -0.17365602       1.22332168      -0.99720073
H        0.20828339       1.17264509      -1.89141273
H       -0.45202687       0.67759705      -2.50152874
H        0.07822362      -0.07606363      -2.81599784
H       -1.19376504       0.33210951      -1.93426049
H        1.18399477      -0.53352135      -0.93650472
H        0.94727135       0.70254403      -1.96057391
H       -0.39102167      -0.91362560      -2.45319939
H       -1.16787386      -0.61517382      -1.85257387
H       -1.00358987      -0.86581743      -0.92615628
H        1.04487264      -0.09387609      -2.47161961
H        0.46349478      -0.85764241      -0.32085213
H        1.04089487      -0.88061184      -1.83489859
H        0.23657656      -1.35340202      -1.85255146
H       -0.17000186      -1.41386366      -0.90619290
