21
Properties=species:S:1:pos:R:3 pbc="F F F"
H        0.00000000       0.00000000       0.00000000
H       -0.61304885      -0.15966894      -0.80746567
H       -0.33189824       0.74740851       0.62011933
H       -1.48673010       0.36628264      -0.69179338
H       -1.20786405       0.96524704       0.25502867
H       -1.34713399       0.92206144       0.09540653
H       -0.87312746      -1.14905179      -0.72497505
H       -0.46279407      -1.58054137       0.11094785
H        0.13712128      -0.85764241       0.54678261
H       -1.83824301      -1.16595078      -0.59719718
H       -1.98992693      -1.60572720       0.25816792
H       -0.19360538      -0.70616162       1.44996274
H       -2.21174002      -0.21028548      -0.57422525
H       -0.98253906      -1.34902918       1.58273649
H       -1.11406016      -1.84800887       0.75703537
H       -2.50875306      -0.02551451       0.33445716
H       -2.43212557      -0.94464457       0.81985390
H       -1.94813037       0.69703341       0.80023682
H       -1.70833993       0.08442736       0.80655104
H       -0.54141164       0.20049530       1.52113104
H       -1.78948009      -0.82133198       1.71854079
