21
Properties=species:S:1:pos:R:3 pbc="F F F"
H        0.00000000       0.00000000       0.00000000
H       -0.12270200      -0.91159266      -0.45526573
H       -0.79538780       0.61471456      -0.20690145
H       -0.96005720      -0.92849165      -0.95186573
H       -1.33469820       0.08701736      -0.82232076
H       -1.41212511       0.49637932      -1.70237124
H       -0.80802453      -1.04649973      -1.90634000
H        0.61241353      -0.99598587      -1.08815110
H        0.87157917       0.43148959      -0.32785726
H        0.59689212       1.28913200      -0.82011783
H       -0.36779153       1.40714014      -0.76078498
H       -0.74973089       1.35646355      -1.65499711
H        0.82815665       1.20017695      -1.81607342
H        1.23874784      -0.26532716      -0.98585242
H       -1.10074222      -0.23283893      -2.35392618
H        0.15219963      -1.16450787      -2.01636028
H        1.19302928       0.17444929      -1.85335886
H        0.48962453      -0.41084719      -2.53230691
H       -0.25556898       0.16607225      -2.77804422
H        1.11358702       0.08813253      -1.97575426
H       -0.13366485       1.38441038      -2.48188996
