21
Properties=species:S:1:pos:R:3 pbc="F F F"
H        0.00000000       0.00000000       0.00000000
H        0.87909138       0.39891118       0.34841394
H        0.84517229       0.28090307       1.31432509
H        1.66797733      -0.09613690      -0.08275905
H        0.23139694      -0.73181123      -0.59914005
H        1.25533521      -0.78522712      -0.64409631
H       -0.11730361      -1.58945370      -0.15621638
H        2.13846970      -0.50549889       0.66498458
H       -0.66910595      -1.29100192       0.65604252
H       -0.65044516      -0.27338541       0.78807354
H        1.64406872      -0.33381149       1.50723577
H        1.28077602      -1.22849154       1.85492802
H        0.62591892      -2.17264462       0.07951583
H       -0.13821113      -0.12190461       1.60215616
H        0.05457716      -1.03349733       2.03245306
H       -0.29082626      -1.74257731       1.46152127
H        1.40675330      -1.72837067      -0.12359996
H        1.88835859      -1.55358732       0.64180517
H        1.49919069      -1.93757153       1.22440314
H        1.02008128      -1.11789060       2.12594318
H        0.74559426       0.37314346       1.43741632
