21
Properties=species:S:1:pos:R:3 pbc="F F F"
H        0.00000000       0.00000000       0.00000000
H        0.49089283       0.77460212       0.32722577
H       -0.14838916       1.50641334       0.38912773
H       -0.07950888       1.80486512       1.36867142
H       -0.99169087       0.26419187      -0.00870253
H        0.07268272      -0.68549418       0.68765968
H        0.95769024       0.56985593       1.27817607
H       -0.80199552      -0.93613780       1.03432465
H        0.66015255      -0.33840370       1.38225913
H        0.58716720       1.21904421       1.88411379
H       -1.48940551      -0.32162899       0.67131060
H       -0.80199552      -0.71829927       1.98332787
H        0.11365759      -0.32059124       2.25079226
H       -0.97801900       1.68685699       1.72478175
H       -1.50897980       1.37154841       0.97197229
H        0.08099246       0.69134700       2.52706289
H       -1.75668585       0.46489149       1.22628677
H       -1.40125918       0.03536141       2.12803268
H       -0.93058497       1.06150866       2.39933872
H       -1.09612823       1.17406118       0.17780666
H       -0.88862205       0.80996352       2.42001867
