20
Properties=species:S:1:pos:R:3 pbc="F F F"
H        0.00000000       0.00000000       0.00000000
H       -0.30729049       0.46966103      -0.79564559
H       -1.13274407       0.00000000      -1.01036799
H       -1.27730441      -0.68549418      -0.33415735
H       -1.93249512       0.64286757      -0.98930871
H       -0.63408053      -0.74740851       0.30437860
H       -0.96039712      -0.52956998       1.19551539
H       -1.92411184      -0.44517678       1.08509493
H        0.00000000       0.69681674       0.75350541
H       -0.32266989       1.57350612       0.32850683
H       -0.52423877       1.49920166      -0.55667537
H       -1.51407337       1.53754759      -0.71039164
H       -2.14431238      -0.46207577       0.13678747
H       -2.49471068       0.38672334      -0.18697488
H       -1.20111322       1.83769798       0.78879344
H       -0.66004395       0.39836493       1.48054886
H       -1.43055975       1.12861800       1.41538811
H       -1.91956496       1.80173945       0.19465154
H       -2.51918983       0.98822612       0.51011407
H       -2.18904662       0.46148014       1.32140756
