21
Properties=species:S:1:pos:R:3 pbc="F F F"
H        0.00000000       0.00000000       0.00000000
H        0.36329272       0.89468008       0.34769225
H        0.26671770      -0.05341591      -0.98961222
H        0.94741690      -0.80082440      -1.16668022
H        0.64920568       0.79538321      -1.27475071
H        0.56330830      -0.77136850       0.37549746
H        1.21159935      -0.33159205       0.95375031
H        1.08861065      -1.21114492      -0.31639481
H        1.77429974      -0.39146245      -1.47772431
H        1.55524683       0.61061227      -1.57972622
H        2.53456068      -0.51584935      -0.79959822
H        1.07150388       0.67684162       0.97939169
H        2.86774850       0.44249171      -0.43258932
H        2.26846170       1.16503954      -0.84744298
H        1.69591999       0.72526312      -1.50078332
H        2.68740749      -0.65640116      -0.77175272
H        3.90310717       0.53600848      -0.14377323
H        1.70393407       0.47338194      -1.91948640
H        2.52402258      -0.58575082      -1.08488476
H        3.81197214       0.66721314       0.24586222
H        3.81197214       0.66721314       0.24586222
