20
Properties=species:S:1:pos:R:3 pbc="F F F"
H        0.00000000       0.00000000       0.00000000
H        0.36925858       0.05341591      -0.95609558
H       -0.46627399      -0.91159266      -0.07008027
H       -0.75243527       0.60990006       0.09961975
H       -1.48233235      -0.85817677       0.06444223
H       -1.61219728       0.10228610       0.15775383
H       -1.91990852      -1.22402883      -0.78878886
H       -0.32515514      -1.29004693      -0.95603675
H       -2.36700082      -0.44942671      -1.17370558
H       -2.18113494       0.35292968      -0.59161168
H       -0.79451048       1.16567886      -0.69875395
H       -1.23900199      -1.37900198      -1.41461587
H       -1.68181753       1.07547760      -1.12258303
H        0.13514549      -0.74098313      -1.56226802
H       -1.96087027      -0.26465574      -2.03914118
H       -1.28107715      -0.82322317      -2.21298957
H       -1.55562377       0.67744792      -1.99990106
H       -0.45040184      -0.32424346      -2.30816650
H       -0.08353359       0.80707657      -1.37446833
H       -0.62365037       0.68167961      -2.20126629
