21
Properties=species:S:1:pos:R:3 pbc="F F F"
H        0.00000000       0.00000000       0.00000000
H       -0.92830116      -0.43148959      -0.07346868
H        0.57267553      -0.58319080      -0.52914286
H        0.11653230      -1.31500196      -0.98130065
H       -0.01969359       0.95566529      -0.37368414
H        0.23497453      -1.19699383      -1.94052243
H        0.81079388      -0.42239171      -2.06891489
H       -1.50143266       0.22959304      -0.50072855
H       -0.91993672       1.10714602      -0.71232367
H        0.96963841      -0.07530123      -1.17317080
H        0.56899697       0.93876630      -1.14906704
H        0.22177768       0.24785423      -2.57601857
H       -1.77497196      -0.15764123      -1.29038906
H       -0.68655491      -1.03732491      -2.36314917
H       -0.83035469      -1.19699383      -0.78754830
H       -1.43509889       0.48522633      -2.01463461
H       -0.70782918      -0.15105695      -2.74929547
H        0.14728406       0.99951243      -2.04895258
H       -1.32531857      -1.02221048      -1.54438341
H       -0.84300399       1.12389934      -1.80982649
H       -0.82922339      -0.07055247      -2.53625298
