21
Properties=species:S:1:pos:R:3 pbc="F F F"
H        0.00000000       0.00000000       0.00000000
H        0.30968034       0.89379078      -0.23086154
H       -0.12789583       1.25964284      -1.08409262
H       -0.58902711      -0.28314662      -0.72175890
H        0.73394406      -0.63587439       0.07106809
H        0.64633983      -1.29695702      -0.63840789
H        1.42591834      -1.24628043      -1.21957064
H        1.10450304      -0.94782865      -2.14744043
H       -0.17918423      -1.09961903      -1.18943989
H        1.31846631       0.87597835      -0.41889751
H        1.46337485       1.19128680      -1.32864642
H        0.64414912       1.38402975      -1.74877179
H       -0.57714599       0.48822188      -1.39864397
H        0.13100296      -0.93092966      -2.15598345
H        0.49852580       0.77412969      -2.49367237
H        1.56843364      -0.11340445      -0.30952692
H       -0.31318110       0.18830884      -2.26724434
H        1.52592945      -0.03623599      -2.35891724
H        0.77186179       0.57366407      -2.44531679
H        0.00617737      -0.94167483      -2.11394238
H        2.14477372      -0.38388598      -0.84290493
