21
Properties=species:S:1:pos:R:3 pbc="F F F"
H        0.00000000       0.00000000       0.00000000
H       -0.47549847       0.19475858       0.88842231
H        0.72413015       0.72254789      -0.08296918
H       -0.64100856       0.15966894      -0.78545380
H        0.00657895       0.90383852       1.34979844
H        0.53823745       1.33726239      -0.88352764
H       -0.26710531       0.99480641      -1.35717845
H        0.66501880       1.30836868       0.75765181
H        0.44055444       2.21502566       0.48260653
H        0.37575114       2.25569296      -0.60398471
H       -0.91569054       1.78920543      -1.31728721
H       -1.70425081       1.45685327      -0.75068438
H       -0.71218121       1.62638640       1.47076237
H       -0.40765220       2.46566916       0.88977242
H       -0.47851083       2.56057405      -0.80038440
H       -1.44345725       0.45895046       0.67259276
H       -1.48416352       0.48877782      -0.49046251
H       -1.58861256       1.36560738       0.99657434
H       -0.98763633       2.74534512       0.00875825
H       -1.75894403       2.04004407       0.02710617
H       -1.52416754       0.47493601      -0.24477750
