21
Properties=species:S:1:pos:R:3 pbc="F F F"
H        0.00000000       0.00000000       0.00000000
H       -0.37664786      -0.36585209      -0.88182342
H       -0.50186598       0.83173102       0.06644528
H       -1.19077659       0.91612422      -0.61644626
H        0.93846273       0.21783850      -0.14104944
H        1.23250759      -0.01177505      -1.09715557
H       -1.15833199       0.16246355      -1.23207903
H       -0.96357709       1.72978497      -1.10059237
H        0.41538769      -0.44326463      -1.54376018
H       -0.82420164       0.51185942      -2.19665504
H        0.09875149       0.11294824      -2.40244937
H        0.08625472       1.60633314       0.01989951
H        1.03854370       1.18326962      -0.06367154
H        1.45393133       0.84586740      -1.61556172
H        0.81693506       0.96387547      -2.34245276
H        1.38562942       1.64026642      -0.96935058
H       -0.70503318       1.47729063      -2.15420008
H       -0.93164265       1.76043725      -1.25057578
H        0.24610609       1.86549950      -2.18321824
H       -0.18957618       2.19215393      -0.77637631
H        0.11256978       1.60779953      -0.76842010
