21
Properties=species:S:1:pos:R:3 pbc="F F F"
H        0.00000000       0.00000000       0.00000000
H        0.14728610      -1.02954066      -0.28719354
H        0.75860566       0.61471456      -0.31617635
H        0.96900392      -0.97612476      -0.89977050
H        1.40857804      -0.04871786      -0.90362805
H        0.38132432       1.33726239      -0.93980062
H       -0.63425016       1.21287549      -1.02017641
H        0.74658185       1.17759347      -1.88553667
H        1.39153683       0.28363433      -1.87449133
H        1.02772510      -0.38711688      -2.39031267
H       -0.67517728      -1.25915420      -0.85654002
H       -0.34534833      -1.45391273      -1.80869865
H       -1.35765433      -0.42401671      -0.88650435
H       -0.06623250       1.01792455      -2.49147606
H        0.72464943      -1.11892807      -1.82404554
H       -0.85398638       1.10231781      -1.92545271
H        0.80341613       1.05823648      -1.92103708
H       -0.33963516       2.06976223      -2.02111149
H       -0.33963516       2.06976223      -2.02111149
H       -0.33660433       0.04054421      -3.37060809
H       -0.34641266       0.07305419      -3.40250039
