21
Properties=species:S:1:pos:R:3 pbc="F F F"
H        0.00000000       0.00000000       0.00000000
H        0.90784711      -0.05341591       0.47569352
H        0.19060609       0.58582085      -0.82085752
H        1.56023526       0.44556379      -0.04724991
H        1.14997768       0.94061184      -0.84721237
H        1.19820940      -0.98251361       0.45271331
H        0.52787066      -1.48149335      -0.04701281
H       -0.20191580      -0.89830256      -0.32153261
H        1.00102651      -1.81384552      -0.89494538
H       -0.18390672      -0.88049012      -1.34753561
H        1.59326625       0.59352136      -1.64162064
H        1.91043043      -1.46675503      -0.87099862
H        2.12273693      -1.07603037      -0.09558487
H        0.93443817       0.17751664      -2.13276577
H        2.29869151      -0.19730377      -0.35502827
H        0.58532757      -1.49520469      -1.63689435
H        0.03360774       0.05812365      -1.62394416
H        1.26094687      -0.90938383      -2.14055729
H        2.30824924      -0.01637870      -1.38690090
H        2.03970957      -0.85204047      -1.68262458
H        1.26948094      -0.79055882      -2.19521713
