21
Properties=species:S:1:pos:R:3 pbc="F F F"
H        0.00000000       0.00000000       0.00000000
H        0.63772744       0.77136850       0.22719663
H       -0.95452821       0.29845181       0.23049112
H       -1.42891443       0.31535080      -0.61964595
H        0.01787902      -0.12438690      -1.01859319
H       -1.75660467       1.22200775      -0.75622278
H        0.74817932       0.58023065      -1.38506663
H       -1.36878622       1.83672237      -0.03162169
H       -1.36524725       1.53731632      -1.59017777
H        1.11951220       1.16605151      -0.62859476
H        0.84044576       2.14537072      -0.75657862
H        0.33712405       2.19604731      -1.58854020
H       -0.91317862       1.30312562       0.62170458
H       -0.86557984       0.03220418      -1.36163175
H        0.28978881       1.30225658      -1.97189164
H       -0.75303203       2.26912761      -1.39599788
H       -0.73455656       2.47259665      -0.40775651
H        0.06783879       1.60157740       0.57863277
H       -0.82248133       0.76594782      -1.99480081
H        0.21505171       2.03951406      -1.64782214
H        0.42240363       2.41265106      -1.40631306
