20
Properties=species:S:1:pos:R:3 pbc="F F F"
H        0.00000000       0.00000000       0.00000000
H        0.58115071      -0.52769721      -0.57607329
H        0.32310259      -1.46634245      -0.59649605
H        1.48680878      -0.43874222      -0.10152677
H        1.71606565      -1.34539914       0.16953680
H       -0.64073312      -0.63587439       0.36494616
H        1.36979890       0.06023750       0.72635531
H        0.49592441       0.43148959       0.78816211
H        1.82392573      -1.32758665       1.19001365
H        0.15807176       0.05303538       1.61923909
H       -0.42931807      -1.52966523       0.04167750
H        0.92386931      -0.47291619       2.05541897
H       -0.13955516      -2.11548615       0.83298981
H        1.13360631      -2.02440333       1.49205565
H        1.74558711      -0.41950029       1.44284201
H       -0.19866653      -1.52966523       1.67361081
H        0.82840365      -2.37967801       0.61716044
H        1.11943412      -1.96139050      -0.17923442
H       -0.53840435      -0.61897540       1.33309090
H        0.68679273      -1.41165709       2.06103420
