20
Properties=species:S:1:pos:R:3 pbc="F F F"
H        0.00000000       0.00000000       0.00000000
H        0.07742673      -0.40936196      -0.88005048
H        0.42523873       0.99041677      -0.04872289
H       -0.95350808       0.15148079       0.12624109
H        0.80625719       1.07481003      -0.94077873
H        0.31615695       1.78389001      -1.39362347
H        0.61908919       0.20535260      -1.49815381
H       -0.81037736      -0.56084275      -1.25007522
H       -1.14959645       1.15740383       0.18094054
H       -0.91065598      -0.03314555      -2.06219625
H       -1.42075837      -0.21437129      -0.71110791
H       -1.61100864       0.62793708      -1.91888988
H       -0.09458619       0.46583417      -2.24415827
H       -0.29778633       1.45153785      -2.14591312
H       -1.87690163       0.51743996      -1.16326571
H       -1.69341874       1.39412928      -0.66219318
H       -1.29948449       1.54049289      -1.94094527
H       -1.25926542       1.97106171      -1.23403025
H       -0.31858888       2.13098049      -0.74194348
H       -0.23988086       1.62095189       0.07670740
