21
Properties=species:S:1:pos:R:3 pbc="F F F"
H        0.00000000       0.00000000       0.00000000
H        0.85755634      -0.19475858       0.52914101
H       -0.53313851      -0.81366080      -0.04219427
H       -1.42373228      -0.76024491       0.46506646
H       -1.43915951       0.16716200       0.90438676
H        0.84169436      -1.14182043       0.75471383
H       -0.04542181      -1.56732154       0.33488515
H       -1.40031445      -1.46932483       1.13193846
H        0.80581188      -1.23077548       1.77653742
H       -0.06015468      -1.72582352       2.01810145
H       -0.58493447      -1.88549244       1.15067089
H        0.74429309      -0.30336857       2.21180248
H       -0.17746085      -0.21441357       2.65427351
H       -0.52958411       0.60990006       0.54371274
H        0.78191507       0.35771406       1.49792910
H       -1.40031445      -1.05332017       1.95369148
H       -1.47291446       0.01568121       1.86562300
H       -0.08030659       0.91393536       1.52063334
H        0.88837272      -0.08206239       0.63576651
H       -0.66354710       0.42504317       2.21975327
H       -0.58673531      -1.23809111       2.45569706
