20
Properties=species:S:1:pos:R:3 pbc="F F F"
H        0.00000000       0.00000000       0.00000000
H        0.75986940       0.40936196      -0.45064643
H        0.36967397       1.18073046      -1.00387526
H        0.58722603       1.02924967      -1.94077730
H        1.16346145      -0.22651243      -1.06776726
H        1.08450413       0.13456959      -2.01551747
H       -0.82331997       0.43977645      -0.27713150
H       -0.57419080       1.12527061      -0.92218435
H       -0.00598124      -0.96807545      -0.34076095
H       -0.27975696       0.94485646      -2.37583971
H       -0.83326548      -1.11955619      -0.83138824
H       -1.39417672      -0.23046950      -0.80459404
H       -0.89761519       0.91920716      -1.75960445
H       -0.31255266      -0.01080883      -2.74860263
H        0.51364732      -0.53567636      -2.54297996
H       -1.51317120       0.10188270      -1.76828814
H       -1.05368876      -0.48046985      -2.32646942
H       -0.68957824      -1.23413050      -1.82899582
H        0.74226153      -1.09246230      -1.03212512
H        0.30166700      -1.28933704      -1.96408367
