21
Properties=species:S:1:pos:R:3 pbc="F F F"
H        0.00000000       0.00000000       0.00000000
H        0.47219095      -0.55577880       0.64514065
H        0.20563313      -0.40429801       1.56929505
H       -0.56057584      -0.52769721      -0.59611344
H       -1.53855181      -0.26350534      -0.43152475
H       -2.00678039      -1.05811548      -0.11940685
H       -0.35246000      -1.13610923       1.88717151
H       -0.44651181      -1.46634245      -0.36374450
H       -1.51691651       0.49015534       0.18458265
H       -2.33069730      -0.78037530       0.87158525
H       -0.43865350      -1.88351774       1.18912053
H       -1.33294272      -1.82948399      -0.05415888
H        0.09230730      -1.56820917       0.43631107
H       -0.59703565       0.64286757       0.53253514
H       -1.41025913      -2.04318666       0.89961696
H       -2.04065442       0.18770015       1.05055141
H        0.41440624      -0.62610549       0.68534267
H       -0.38248757       0.37030411       1.52274930
H        0.56183696      -1.43310463      -0.28163308
H       -1.48686361      -0.83127248       2.03736258
H       -1.46978104      -0.79174173       2.07521129
