20
Properties=species:S:1:pos:R:3 pbc="F F F"
H        0.00000000       0.00000000       0.00000000
H       -0.32983679       0.96807545      -0.08579928
H        0.22990148      -0.40936196      -0.85301179
H        1.17711484      -0.62720048      -0.79475325
H       -0.31287464       1.08608353      -1.05215704
H        0.01177090       0.24852157      -1.54856312
H        0.37896565       1.74716616      -1.23212314
H        0.30171180       1.57797551       0.33518666
H        1.60387778      -0.04400969      -1.44730425
H        0.91513664       0.48368752      -1.88915515
H        1.13250244       1.41278529      -1.69527245
H        2.22026300       0.56589037      -1.00441384
H        1.90176153       1.46346188      -1.10051775
H        0.80908364       0.05067664       0.53932959
H        0.98209572       1.02219677       0.75500631
H        1.56721866      -0.34823453      -0.02584749
H        1.63969624       1.86237311      -0.19193882
H        0.69930005       2.03031278      -0.35732335
H        1.83029437       1.24003530       0.32937005
H        2.20531893       0.40247333      -0.13016269
