21
Properties=species:S:1:pos:R:3 pbc="F F F"
H        0.00000000       0.00000000       0.00000000
H        0.69739223       0.29845181      -0.69129914
H        0.25665134       1.02099967      -1.27181268
H        0.93037391      -0.53911018      -1.23676527
H       -0.90549725       0.46354809      -0.13609484
H       -0.75590044       1.04673886      -0.90132046
H        0.17377593       0.62208849      -2.21379232
H       -1.38634491       0.76899868      -1.73169839
H        0.60054505      -0.34435159      -2.18892384
H       -1.58769596      -0.25899979      -0.39271381
H       -1.90252101      -0.10751900      -1.30155897
H       -0.78665406       0.50480682      -2.52157021
H       -0.08961785      -0.98022598      -2.44853878
H        0.36573011      -1.33350921      -0.91515779
H       -1.33861899       0.63988948      -1.72193861
H       -0.72376978       1.44689035      -3.23632789
H       -0.69872451       1.44689035      -3.23368073
H       -2.71486902       0.27971527      -1.10540032
H       -1.30830359       0.87738508      -0.58668494
H       -0.72376978       1.44689035      -3.23632789
H       -2.71486902       0.27971527      -1.10540032
