21
Properties=species:S:1:pos:R:3 pbc="F F F"
H        0.00000000       0.00000000       0.00000000
H       -0.33100656      -0.58582085      -0.77496612
H       -0.05727315      -0.15433127      -1.66502833
H       -0.87973654       0.07528228      -2.23437476
H       -0.79160231       1.02961969      -2.40622807
H       -1.35342050      -0.49686587      -0.78393829
H        0.46678197       0.70331115      -1.45732737
H       -1.63601780       0.11784869      -0.01219440
H       -1.61328387       1.42853093      -1.93821812
H       -2.14249706       0.61205852      -1.61167562
H       -0.77954406       0.37845421       0.44400951
H        0.01175949       1.41623330      -1.82206607
H       -1.66270304      -0.21967250      -1.77317536
H        0.49425924       0.75366068      -0.36846206
H       -1.37747312       2.03843093      -1.21677780
H       -1.77278960       1.65997672      -0.41144663
H        0.03046551       1.58539176      -0.16553396
H       -0.77024531       1.33474815       0.32853165
H       -0.29943013       2.04893994      -1.01970959
H       -2.25891089       0.84631592      -0.63438880
H       -2.10321355       0.87150937      -0.41441888
