8
Properties=species:S:1:pos:R:3 pbc="F F F"
H        0.00000000       0.00000000       0.00000000
H        0.13252793       0.60990006       0.74734145
H       -0.46377745       0.77136850      -0.49317852
H        0.43250409       1.10372066      -0.86673629
H        0.49300605       1.65994191      -0.00634032
H        0.89749557       0.36585209      -0.33760607
H       -0.34584585       1.35718942       0.34122542
H        1.03363967       0.94904292       0.43012708
