8
Properties=species:S:1:pos:R:3 pbc="F F F"
H        0.00000000       0.00000000       0.00000000
H       -0.46163812      -0.66108263       0.54582143
H        0.64258742       0.18477097       0.70781487
H        0.11230269      -1.37016249       0.20544139
H        0.74247801      -1.24577558       1.00589800
H        1.25473094      -0.57552963       0.42135447
H        0.63957262      -0.72254789      -0.34956440
H        0.14282149      -0.47440708       1.32010591
