8
Properties=species:S:1:pos:R:3 pbc="F F F"
H        0.00000000       0.00000000       0.00000000
H        0.88292891      -0.28314662      -0.29719594
H        0.88292891      -0.83936793       0.56532466
H       -0.35793361      -0.68549418      -0.59164357
H        0.51570380      -1.09485614      -0.72294986
H       -0.01255137      -0.52405941       0.78155738
H       -0.34500837      -1.25587058       0.23202515
H        0.56426793      -1.53901720       0.02928044
