8
Properties=species:S:1:pos:R:3 pbc="F F F"
H        0.00000000       0.00000000       0.00000000
H        0.75986940       0.40936196      -0.45064643
H        0.09135711       1.07960796      -0.84711283
H       -0.00419391       0.49641716      -1.62094712
H        0.63721997      -0.17382884      -1.22065067
H       -0.67055017       0.61605990      -0.33923072
H       -0.09555102      -0.58319080      -0.77383429
H       -0.73439074       0.02670926      -1.18367171
