12
Properties=species:S:1:pos:R:3 pbc="F F F"
H        0.00000000       0.00000000       0.00000000
H        0.35866648      -0.83756196      -0.47241095
H       -0.49022913      -1.36351347      -0.23560901
H       -0.80759406      -0.43977645       0.32007718
H       -0.11222833      -0.49047148      -1.25077283
H       -0.89984840      -0.98945117      -0.97017562
H       -0.80441964      -0.58891135       0.26372743
H       -0.47738189       0.30392754      -0.71326292
H       -1.31081581      -0.04316294      -0.34860262
H       -0.61742425      -1.92711091      -0.41594946
H       -1.03696966      -0.13180876      -0.42339301
H       -0.59041208      -1.90111947      -0.49500573
