11
Properties=species:S:1:pos:R:3 pbc="F F F"
H        0.00000000       0.00000000       0.00000000
H        0.97460508       0.08895500       0.30912116
H       -0.31766176       0.08895500       0.97185487
H        0.01401493       0.96046287      -0.15929696
H        0.67862833       0.14237091       1.21243048
H        0.94258255       1.09487808       0.10808073
H       -0.37561890       1.00580013       0.90571862
H        0.58326113       1.05647671       1.06709337
H       -0.30364683       1.04941785       0.81255794
H        0.35123503       1.19571817      -0.60346019
H        0.33822531       0.22648191      -0.51141238
