12
Properties=species:S:1:pos:R:3 pbc="F F F"
H        0.00000000       0.00000000       0.00000000
H       -0.90169489       0.25064358      -0.26867270
H        0.34122458       0.43977645      -0.79888880
H       -1.02137685      -0.69146013      -0.65782654
H        0.20262088      -0.47181621      -1.24956799
H       -0.11281025      -0.95565200      -0.26029265
H       -0.20086636      -0.93536431      -0.42759162
H       -0.37264323      -0.32852358      -1.95446253
H       -1.01718068      -0.69437563      -1.24449944
H       -1.07646203       0.20149368      -1.03897142
H       -0.47821078       0.65079558      -1.66616845
H        0.21844748       0.51569110      -1.16559958
