8
Properties=species:S:1:pos:R:3 pbc="F F F"
H        0.00000000       0.00000000       0.00000000
H       -0.32983679       0.96807545      -0.08579928
H        0.15129681      -0.15148079      -0.94985455
H       -0.77496022      -0.36931929      -1.15638566
H       -1.22945189       0.62098497      -0.22101003
H       -1.10460734       0.49659806      -1.23208165
H       -0.99230343      -0.31766033      -0.11724817
H       -0.16900364       0.87912047      -1.09552383
