8
Properties=species:S:1:pos:R:3 pbc="F F F"
H        0.00000000       0.00000000       0.00000000
H        0.85755634      -0.19475858       0.52914101
H       -0.30458406      -0.91843063       0.10851098
H       -0.80726624      -0.68881708       0.97333008
H        0.07796210      -0.81320399       1.47753501
H        0.54309678      -1.10141551       0.69391149
H        0.37714064      -0.00998761       1.35565257
H       -0.44781619       0.21783850       0.83670062
