8
Properties=species:S:1:pos:R:3 pbc="F F F"
H        0.00000000       0.00000000       0.00000000
H        0.88791460       0.34709048      -0.19798161
H        0.77965075      -0.06227148      -1.07477272
H        0.45500523       0.77529049      -1.57117879
H       -0.08161212      -0.43148959      -0.92762071
H       -0.47709817       0.40943840      -1.34610260
H       -0.35247481       0.81366080      -0.40221709
H        0.45227110       1.18465245      -0.60050923
