9
Properties=species:S:1:pos:R:3 pbc="F F F"
H        0.00000000       0.00000000       0.00000000
H       -0.02074104      -0.97334045      -0.01546210
H        0.79207319      -1.13300943      -0.62140161
H        0.71503544      -0.01689900      -0.66068119
H        0.65634161      -0.98877251      -0.66950279
H        0.71969908      -0.34709048       0.55643719
H        1.35099506      -0.59383142      -0.32745123
H        1.43473458      -0.36398947      -0.10424399
H        0.46187150      -1.21193480       0.19088283
