8
Properties=species:S:1:pos:R:3 pbc="F F F"
H        0.00000000       0.00000000       0.00000000
H        0.11786898      -0.15148079      -0.95457917
H        0.71153617      -0.66108263       0.06889832
H        0.79624212      -0.77909070      -0.89388925
H        0.10797119      -1.46458483      -0.82724369
H        0.04393512      -1.43245113       0.18125239
H       -0.63277572      -0.76776809      -0.96531749
H       -0.70007795      -0.74740851       0.06778885
