8
Properties=species:S:1:pos:R:3 pbc="F F F"
H        0.00000000       0.00000000       0.00000000
H        0.44047090       0.80291802      -0.09821343
H       -0.44328880       0.34709048      -0.79440808
H        0.67033863      -0.49897972      -0.49972630
H       -0.07731125       1.03253150      -0.95407736
H        1.12178612       0.30786994      -0.68478036
H        0.19520307      -0.14795759      -1.42732143
H        0.59057307       0.50657994      -1.52908111
