11
Properties=species:S:1:pos:R:3 pbc="F F F"
H        0.00000000       0.00000000       0.00000000
H        0.05739931      -0.52769721       0.81627315
H        0.37439200       0.46354809       0.83563006
H       -0.70150650       0.33235219       0.67138261
H       -0.40841550       1.06416345       0.09988374
H        0.06527746       1.67887807      -0.57172990
H        0.45216781       0.97520846      -0.45220995
H       -0.34875429       0.82123566      -0.95428860
H       -0.38969308      -1.30229926       0.43135637
H       -0.94546366      -0.54863858       0.69814372
H       -0.45350578      -0.95520878       1.33883476
