10
Properties=species:S:1:pos:R:3 pbc="F F F"
H        0.00000000       0.00000000       0.00000000
H       -0.32983679       0.96807545      -0.08579928
H       -0.01616727       0.31530851      -0.92107552
H       -0.86013508       0.00000000      -0.55180621
H       -0.85162115       0.55871350       0.62709957
H        0.06067979       0.99020308       0.81377482
H       -0.06434011       0.08905247       0.29897171
H       -1.33280730       0.08439321      -1.39887166
H       -1.15314329       0.93319231      -0.95691931
H       -0.54476136       0.35000151      -1.44458818
