8
Properties=species:S:1:pos:R:3 pbc="F F F"
H        0.00000000       0.00000000       0.00000000
H        0.88292891      -0.28314662      -0.29719594
H        0.15624571      -0.64899874      -0.92282176
H        0.29099023      -0.87984765       0.29875353
H        0.55699575      -0.02220523       0.79575908
H       -0.69055390      -0.93214536      -1.31117630
H       -0.69055390      -0.29627097      -0.57379943
H       -0.45526296       0.00649995      -1.41908407
