5
Properties=species:S:1:pos:R:3 pbc="F F F"
H        0.00000000       0.00000000       0.00000000
H        0.21426670       0.05341591       1.00227761
H       -0.75381702       0.28302944       0.75045335
H       -0.04685329       0.90221500       0.60300660
H       -0.62712544       0.15966894       0.79658234
