7
Properties=species:S:1:pos:R:3 pbc="F F F"
H        0.00000000       0.00000000       0.00000000
H        0.87909138       0.39891118       0.34841394
H        0.35730702      -0.01045078       1.06131279
H        0.68983865      -0.60701185       0.42342129
H       -0.71417612      -0.66108263      -0.03135611
H       -0.51648891      -0.26217145       0.89336747
H       -0.79894584       0.32830018       0.22798859
