6
Properties=species:S:1:pos:R:3 pbc="F F F"
H        0.00000000       0.00000000       0.00000000
H       -0.77018702      -0.01689900       0.59547228
H       -0.50759143      -0.73944688      -0.08444828
H       -0.39716414      -0.92849165       0.88387585
H        0.37771782      -0.81048357       0.30621421
H        0.08501512      -0.14023763       1.02622771
