6
Properties=species:S:1:pos:R:3 pbc="F F F"
H        0.00000000       0.00000000       0.00000000
H        0.83968246      -0.37845421      -0.31585881
H        0.24597500      -0.98938280       0.11807569
H       -0.57830763      -0.74740851      -0.40033078
H        0.32663596      -1.14982271      -0.75755763
H        0.08470593      -0.11800810      -0.96278757
