6
Properties=species:S:1:pos:R:3 pbc="F F F"
H        0.00000000       0.00000000       0.00000000
H        0.63848275      -0.52769721      -0.51179713
H        0.08993413       0.01781246      -1.02221251
H       -0.73783344      -0.39891118      -0.59143531
H       -0.14120561      -0.95468998      -0.05926424
H       -0.08048677      -0.95468998      -1.04648054
