6
Properties=species:S:1:pos:R:3 pbc="F F F"
H        0.00000000       0.00000000       0.00000000
H       -0.78841746      -0.36585209      -0.54577839
H       -0.65627092       0.58319080      -0.42102012
H        0.28846827       0.52595156      -0.83275741
H       -0.44916245       0.14749736      -1.34337890
H        0.13091868      -0.45024529      -0.85522914
