6
Properties=species:S:1:pos:R:3 pbc="F F F"
H        0.00000000       0.00000000       0.00000000
H       -0.30729049       0.46966103      -0.79564559
H       -0.75267059      -0.28399965      -0.36939093
H       -0.33958456      -0.33467630      -1.24964809
H        0.08921510      -0.86982048      -0.40635413
H        0.46658099      -0.08895500      -0.90978736
