6
Properties=species:S:1:pos:R:3 pbc="F F F"
H        0.00000000       0.00000000       0.00000000
H        0.80713278      -0.08439321       0.53802919
H        0.72552067      -0.51588279      -0.38959152
H        0.45375767       0.43148959      -0.81316954
H        1.26089048       0.34709638      -0.27514035
H        0.58491343       0.83756196       0.09843803
