6
Properties=species:S:1:pos:R:3 pbc="F F F"
H        0.00000000       0.00000000       0.00000000
H        0.47219095      -0.55577880       0.64514065
H        0.19082075      -0.02808160       1.41353345
H       -0.47049233      -0.40936196       0.74774373
H       -0.30615029       0.58663297       0.75895745
H        0.63989484       0.36879447       0.68408442
