6
Properties=species:S:1:pos:R:3 pbc="F F F"
H        0.00000000       0.00000000       0.00000000
H       -0.32983679       0.96807545      -0.08579928
H        0.65001661       0.28314662       0.66735840
H        0.60153466       0.59845513      -0.25258237
H       -0.29883265       0.55871350       0.79710639
H        0.39668131       1.25553024       0.50722575
