6
Properties=species:S:1:pos:R:3 pbc="F F F"
H        0.00000000       0.00000000       0.00000000
H       -0.47398776      -0.23709527       0.75329894
H       -0.17433187       0.74222386       0.68648356
H       -1.07039094       0.47198465       0.45401677
H       -0.84369195      -0.21928281      -0.20394999
H       -0.52470064       0.74879265      -0.32394323
