21
Properties=species:S:1:pos:R:3 pbc="F F F"
H        0.00000000       0.00000000       0.00000000
H        0.65604281      -0.46966103       0.54505712
H       -0.32710695      -0.73385286       0.67522264
H        0.67306662      -0.55405426      -0.42481345
H       -0.25782758      -0.86484438      -0.36555436
H        0.43939257      -1.39079595       0.17350319
H       -0.31062567      -0.86484438       0.63628978
H        0.64843154       0.31677154       0.76180208
H        0.65604281       0.31677154       0.76193565
H       -0.20062047      -0.02988458       0.68922949
H       -0.14563513       0.05803618       0.70909673
H       -0.20515239      -0.02988458       0.65907633
H       -0.21976447      -0.06029907       0.66101092
H        1.09458303      -1.11145484       1.43844247
H        1.09458303      -1.11145484       1.43844247
H        1.09458303      -1.11145484       1.43844247
H        1.09458303      -1.11145484       1.43844247
H        1.09458303      -1.11145484       1.43844247
H        1.09458303      -1.11145484       1.43844247
H        1.09458303      -1.11145484       1.43844247
H        1.09458303      -1.11145484       1.43844247
