6
Properties=species:S:1:pos:R:3 pbc="F F F"
H        0.00000000       0.00000000       0.00000000
H       -0.30820453      -0.91843063       0.09775501
H        0.55663162      -0.77136850      -0.38532564
H       -0.03155094      -0.49504808       0.89847416
H        0.86479479      -0.24367130       0.37271920
H        0.52728873      -1.27034819       0.45026943
