21
Properties=species:S:1:pos:R:3 pbc="F F F"
H        0.00000000       0.00000000       0.00000000
H       -0.21671417       0.94706190      -0.06457304
H       -0.90144998       0.26419187      -0.41341797
H       -0.38579512       0.85354507      -1.12607837
H       -0.11673173      -0.13583773      -1.08079636
H        0.47781536       0.54815072      -0.70630705
H       -0.18482697      -0.13471931      -1.03038251
H       -0.88143641       0.21767068      -0.58012569
H       -0.83233899       0.16805089      -0.59810382
H       -0.67115271      -0.07555264      -1.06768835
H       -0.70633388      -0.06488556      -1.08364022
H       -0.73970133      -0.05311185      -1.15408766
H        0.09859180       2.16115451      -1.67882323
H        0.09859180       2.16115451      -1.67882323
H        0.09859180       2.16115451      -1.67882323
H        0.09859180       2.16115451      -1.67882323
H        0.09859180       2.16115451      -1.67882323
H        0.09859180       2.16115451      -1.67882323
H        0.09859180       2.16115451      -1.67882323
H        0.09859180       2.16115451      -1.67882323
H        0.09859180       2.16115451      -1.67882323
