21
Properties=species:S:1:pos:R:3 pbc="F F F"
H        0.00000000       0.00000000       0.00000000
H       -0.50007260       0.47200781      -0.61275923
H       -0.76071984       0.52769721       0.30149934
H       -0.22841859       1.22566843      -0.05935115
H        0.41403177       0.85764241      -0.38255867
H        0.35214710       0.73062038       0.62708521
H       -0.60242444       0.39826819       0.44915491
H        1.11129880       0.28643310       0.38548616
H        1.07593524       0.09167452       1.39253247
H        0.28773868       0.61937171       1.61240220
H        1.13448465       1.03031981       1.14038587
H        1.13192844       0.42995644      -0.78981376
H        0.81980848      -0.43488795      -0.46936688
H        0.53803754      -1.28368711      -0.08439139
H        1.56464911       1.39637411      -1.32004380
H        0.95843291       1.34843671      -2.01181102
H        0.91704988       2.12303877      -1.42330456
H        2.00600910       1.55318296      -2.16926003
H        1.46635306       1.46227956      -1.26396930
H        0.60969502       1.81809771      -1.23344016
H        1.82692409       0.93907475      -2.17369628
