6
Properties=species:S:1:pos:R:3 pbc="F F F"
H        0.00000000       0.00000000       0.00000000
H        0.79402828      -0.31375703       0.65969908
H        0.91247052      -0.19574893      -0.29952270
H        0.04182595      -0.98400295       0.46403131
H        0.22737217      -0.85683155      -0.50365740
H        0.97936231      -1.05159009       0.16709137
