6
Properties=species:S:1:pos:R:3 pbc="F F F"
H        0.00000000       0.00000000       0.00000000
H        0.41703188       0.87984765      -0.00365971
H        0.98951960       0.15966894      -0.22063684
H        0.11936287       0.46966103       0.84453052
H        1.10403538       0.68736613       0.58959937
H        0.76480854      -0.28070933       0.62244684
