21
Properties=species:S:1:pos:R:3 pbc="F F F"
H        0.00000000       0.00000000       0.00000000
H        0.05739931      -0.52769721       0.81627315
H        0.39615512       0.49504808       0.80703926
H       -0.54069358       0.79439902       0.36042264
H       -0.59934294       0.29541931       1.19447327
H       -0.87458867      -0.17367643       0.42874438
H       -0.51379359       0.21971130       1.22669137
H       -1.20841765       0.69116795       0.72650820
H       -1.20841765       0.69116795       0.72650820
H       -1.48735726       0.26844823       0.12124988
H       -1.48735726       0.26844823       0.12124988
H       -1.48735726       0.26844823       0.12124988
H        1.25742638      -0.18089911       1.25832796
H       -1.48929048       0.24438766       0.09277329
H       -0.07294029      -1.35485363       0.18988179
H       -0.07294029      -1.35485363       0.18988179
H       -0.07294029      -1.35485363       0.18988179
H       -0.07294029      -1.35485363       0.18988179
H       -0.07294029      -1.35485363       0.18988179
H       -0.07294029      -1.35485363       0.18988179
H       -0.07294029      -1.35485363       0.18988179
