21
Properties=species:S:1:pos:R:3 pbc="F F F"
H        0.00000000       0.00000000       0.00000000
H       -0.02481474      -0.91159266      -0.47085762
H        0.81825733      -0.52769721      -0.00718072
H       -0.45070410      -0.79358459       0.39675593
H        0.27822375      -1.43754423       0.35670894
H        0.27570921      -0.40331030       0.85507989
H        0.78524888      -0.64314520      -0.04971394
H        0.07647587      -1.47339523       0.38862664
H        0.04424694      -1.47339523       0.40375099
H        0.86252540      -1.22690117      -0.22333165
H       -1.03601170      -0.26422209      -1.07055593
H       -1.03601170      -0.26422209      -1.07055593
H       -1.03601170      -0.26422209      -1.07055593
H       -1.03601170      -0.26422209      -1.07055593
H       -1.03601170      -0.26422209      -1.07055593
H       -1.03601170      -0.26422209      -1.07055593
H       -1.03601170      -0.26422209      -1.07055593
H       -1.03601170      -0.26422209      -1.07055593
H       -1.03601170      -0.26422209      -1.07055593
H       -1.03601170      -0.26422209      -1.07055593
H       -1.03601170      -0.26422209      -1.07055593
