6
Properties=species:S:1:pos:R:3 pbc="F F F"
H        0.00000000       0.00000000       0.00000000
H       -0.92501378       0.29845181       0.32954502
H       -0.62117100      -0.66108263       0.35380402
H       -0.73818088      -0.16210291       1.18168616
H       -0.09007883       0.53471386       0.79732424
H        0.20402545      -0.39689076       0.90387428
