6
Properties=species:S:1:pos:R:3 pbc="F F F"
H        0.00000000       0.00000000       0.00000000
H       -0.37664786      -0.36585209      -0.88182342
H       -0.38154605       0.49897972      -0.74397773
H       -1.26496196       0.08961776      -0.75173008
H       -0.84554547       0.46966103       0.11194722
H       -0.77891147      -0.53626204      -0.08041342
