6
Properties=species:S:1:pos:R:3 pbc="F F F"
H        0.00000000       0.00000000       0.00000000
H       -0.92830116      -0.43148959      -0.07346868
H       -0.15728328      -0.83173102       0.48119268
H       -0.92830116      -0.51588279       0.89655131
H       -0.82168150       0.39891118       0.46800998
H       -0.13851461      -0.01807022       1.01566887
