21
Properties=species:S:1:pos:R:3 pbc="F F F"
H        0.00000000       0.00000000       0.00000000
H        0.87909138       0.39891118       0.34841394
H        0.81616211       0.02045697       1.24332917
H        0.70121610      -0.59934312       0.50707257
H       -0.12892029      -0.31530851       0.91215187
H        0.05705845       0.68294579       0.76307440
H        0.77474332       0.12672448       1.24147820
H        0.74918640       0.00000000       1.19066608
H        0.49207482       0.06176272      -0.06313747
H        0.49207482       0.06176272      -0.06313747
H        0.49207482       0.06176272      -0.06313747
H        0.51469254       0.04235902      -0.06740993
H        2.20488954       0.42403132       0.92850316
H        2.20488954       0.42403132       0.92850316
H        2.20488954       0.42403132       0.92850316
H        2.20488954       0.42403132       0.92850316
H        2.20488954       0.42403132       0.92850316
H        2.20488954       0.42403132       0.92850316
H        2.20488954       0.42403132       0.92850316
H        2.20488954       0.42403132       0.92850316
H        2.20488954       0.42403132       0.92850316
