21
Properties=species:S:1:pos:R:3 pbc="F F F"
H        0.00000000       0.00000000       0.00000000
H       -0.04850490       0.68549418       0.68978679
H       -0.62742841       0.40936196      -0.62194639
H       -0.65211219       1.15677047       0.08097261
H       -0.85037309       0.17745131       0.31538793
H        0.24060346       0.92740691      -0.36789981
H        0.00806206       0.74263597       0.55937850
H       -0.41667026      -0.42213702       1.02495885
H       -0.45238370      -0.42213702       1.00970471
H       -0.45238370      -0.42213702       1.00970471
H        0.31730282       0.90665692      -0.15922636
H        0.27700439       0.90665692      -0.22204210
H        0.20362927      -0.05702244       0.62298399
H        0.20362927      -0.05702244       0.62298399
H        0.20412146      -0.03424097       0.62448978
H        0.32276163       0.73181123       0.55528218
H        0.32276163       0.73181123       0.55528218
H        0.29647309       0.77460212       0.51005512
H        0.31315175       0.83173102       0.39776930
H       -0.41093788      -0.84067297      -0.96210462
H       -0.41093788      -0.84067297      -0.96210462
