6
Properties=species:S:1:pos:R:3 pbc="F F F"
H        0.00000000       0.00000000       0.00000000
H        0.52815789      -0.26419187       0.83939010
H        0.56716746       0.63587439       0.47121727
H        0.08675176       0.45110342       1.29772878
H       -0.42672941      -0.17478335       0.79730207
H       -0.38878769       0.82064533       0.46282834
