10
Properties=species:S:1:pos:R:3 pbc="F F F"
H        0.00000000       0.00000000       0.00000000
H       -0.90169489       0.25064358      -0.26867270
H       -0.18911645       0.49897972      -0.81444162
H       -0.73034912      -0.75527942      -0.37859690
H       -0.00195253      -0.49108756      -1.05162358
H       -0.83721852      -0.19783702      -1.19880354
H       -0.00195253      -0.15873536      -0.08061069
H       -0.22038086       1.25861120      -0.51864612
H       -0.95820260       0.99949527       0.04998136
H       -1.04137468       0.78165674      -0.89537024
