6
Properties=species:S:1:pos:R:3 pbc="F F F"
H        0.00000000       0.00000000       0.00000000
H        0.38154608      -0.49897972      -0.74397767
H       -0.09632852      -1.02162731      -0.01795545
H        0.46567813      -0.52264762       0.60109919
H        0.99344015      -0.05909953      -0.14717495
H        0.86441445      -1.05034482      -0.11346781
