6
Properties=species:S:1:pos:R:3 pbc="F F F"
H        0.00000000       0.00000000       0.00000000
H        0.15607943       0.96046287      -0.03480161
H       -0.81625289       0.21783850      -0.48408511
H       -0.67120481       1.11194372      -0.52542895
H       -0.69468081       0.65761495       0.37607643
H        0.04365420       0.50098515      -0.84248251
