21
Properties=species:S:1:pos:R:3 pbc="F F F"
H        0.00000000       0.00000000       0.00000000
H        0.21426670       0.05341591       1.00227761
H       -0.76909679       0.28302944       0.81898057
H       -0.08055614       0.91826028       0.66584849
H       -0.66145128      -0.67024595       0.40813777
H       -0.68630499       0.44859925       0.06539226
H        0.80124485       0.56441325       0.75763327
H        0.48373860       0.64880645      -0.15895200
H        0.72262585      -0.18292457       0.28738567
H        0.26030278      -0.75920093       0.85060847
H       -1.24310803      -0.10528079       0.28607237
H       -0.55735946      -1.50097120       1.27904701
H        0.16727674      -1.16861904       1.92539704
H        0.35879284      -2.13669443       2.20731091
H       -0.57065469      -1.70520484       2.26447654
H        0.44125205      -1.88605082       1.27006006
H       -0.28986001      -2.36628747       1.60706866
H       -0.51896715      -1.53256154       1.29446185
H       -0.12814221      -2.15188217       2.45809340
H       -0.13630208      -2.16837668       2.43662524
H        0.15677458      -2.56140471       3.25834179
