6
Properties=species:S:1:pos:R:3 pbc="F F F"
H        0.00000000       0.00000000       0.00000000
H        0.49089283       0.77460212       0.32722577
H       -0.44788539       0.85899532       0.08302467
H        0.25260735       1.23815024      -0.55689359
H       -0.29426917       0.49504808      -0.84950393
H        0.69999599       0.37845421      -0.56110507
