6
Properties=species:S:1:pos:R:3 pbc="F F F"
H        0.00000000       0.00000000       0.00000000
H        0.42330277      -0.73181123      -0.48304045
H       -0.04485801      -1.01495790       0.32238758
H        0.84583741      -1.09766328       0.37773860
H        0.38024861      -0.38858336       0.85574871
H        0.93347931      -0.12191117       0.07892287
