6
Properties=species:S:1:pos:R:3 pbc="F F F"
H        0.00000000       0.00000000       0.00000000
H        0.45934626      -0.55622131       0.73002923
H        0.87537986       0.33235219       0.42020965
H        0.47780591       0.28167555       1.30758095
H        0.02254014       0.73181123       0.64187634
H       -0.36530453      -0.08439321       0.89860523
