21
Properties=species:S:1:pos:R:3 pbc="F F F"
H        0.00000000       0.00000000       0.00000000
H        0.58115071      -0.52769721      -0.57607329
H        0.73530376      -1.16357160       0.14501023
H       -0.29604810      -0.95918679      -0.26356280
H       -0.04726094      -0.75312334       0.59898031
H        0.84415430      -0.30985871       0.33575803
H       -0.11289501      -0.94573307      -0.28062588
H        0.75781995      -0.62620699       0.56363302
H       -1.15263450      -0.22472143       0.15260473
H       -1.15263450      -0.22472143       0.15260473
H       -1.15728009      -0.22472143       0.11205993
H       -1.15728009      -0.22472143       0.11205993
H       -1.15728009      -0.22472143       0.11205993
H       -1.15728009      -0.22472143       0.11205993
H       -1.15728009      -0.22472143       0.11205993
H       -1.15728009      -0.22472143       0.11205993
H       -1.15263450      -0.22472143       0.15260473
H       -1.16434574      -0.18423338       0.11274411
H       -1.15728009      -0.22472143       0.11205993
H       -1.16434574      -0.18423338       0.11274411
H       -1.15728009      -0.22472143       0.11205993
