6
Properties=species:S:1:pos:R:3 pbc="F F F"
H        0.00000000       0.00000000       0.00000000
H        0.63772744       0.77136850       0.22719663
H       -0.33294153       0.85764241       0.45488834
H        0.68097126       0.01770782       0.84216523
H       -0.28404403       0.05341591       0.98477906
H        0.34809750       0.86650693       1.18391967
