5
Properties=species:S:1:pos:R:3 pbc="F F F"
H        0.00000000       0.00000000       0.00000000
H        0.21426670       0.05341591       1.00227761
H       -0.75381702       0.28302944       0.75045335
H       -0.04777934       0.88514692       0.56913066
H       -0.73243201       0.15966894       0.70098007
