5
Properties=species:S:1:pos:R:3 pbc="F F F"
H        0.00000000       0.00000000       0.00000000
H       -0.32983679       0.96807545      -0.08579928
H       -0.01616727       0.31530851      -0.92107552
H       -0.86812580       0.16382772      -0.47466639
H       -0.78888839       0.29782951       0.54138958
