7
Properties=species:S:1:pos:R:3 pbc="F F F"
H        0.00000000       0.00000000       0.00000000
H        0.14728610      -1.02954066      -0.28719354
H        0.93011481      -0.19475858      -0.38765898
H       -0.01757365      -0.30699277      -0.99717218
H        0.75695080      -0.45895046       0.58883512
H        0.81577241      -0.32480523      -0.39838934
H        1.16472483      -0.01817107       0.51282674
