9
Properties=species:S:1:pos:R:3 pbc="F F F"
H        0.00000000       0.00000000       0.00000000
H       -0.93989587      -0.24138860      -0.47165081
H       -0.81604803       0.36585209       0.50352919
H       -0.66568631      -0.64286757       0.44374192
H       -0.12329733       0.00000000       1.16653180
H        0.75230062      -0.19475858       1.66525149
H        0.21195340       0.62171382       1.97302032
H        0.74189109       0.64280337       1.07220387
H       -0.96861333       0.28630859       0.34613392
