6
Properties=species:S:1:pos:R:3 pbc="F F F"
H        0.00000000       0.00000000       0.00000000
H        0.44047090       0.80291802      -0.09821343
H        0.00000000       0.63587439       0.73737687
H        0.48041564      -0.18477097       0.82651162
H        1.00257802       0.57330447       0.72921455
H        1.02517343      -0.01781246      -0.04501048
