21
Properties=species:S:1:pos:R:3 pbc="F F F"
H        0.00000000       0.00000000       0.00000000
H       -0.39122835      -0.01598554      -0.83368021
H        0.52155948       0.55622131      -0.68696249
H        0.01317716       1.17093587      -0.04120916
H       -0.69851899       0.72254789      -0.20813358
H       -0.33124655       1.35570681      -0.93300110
H       -1.17803502       1.54047775      -0.48930097
H       -0.31149819       2.15031695      -0.37062615
H        0.11802954       0.90854591      -0.09461051
H       -0.31559175       0.90085953      -0.87853706
H       -0.78476894       1.38899696       0.38845539
H       -0.63099706       0.48624545       0.28980547
H       -0.64243233       1.37262070       0.43215501
H       -0.33449167       1.21084476       0.51904935
H       -1.51953602      -0.00107437      -0.08052555
H       -1.51953602      -0.00107437      -0.08052555
H       -1.51953602      -0.00107437      -0.08052555
H       -1.50599229      -0.00107437      -0.11147997
H       -0.51530719       0.43378481      -0.30197757
H       -0.51530719       0.43378481      -0.30197757
H       -0.51502752       0.45474377      -0.30340797
