6
Properties=species:S:1:pos:R:3 pbc="F F F"
H        0.00000000       0.00000000       0.00000000
H        0.38154608      -0.49897972      -0.74397767
H       -0.09735072      -1.02162731      -0.01115424
H        0.46465594      -0.52264762       0.60790038
H        0.99241793      -0.05909953      -0.14037377
H        0.86339223      -1.05034482      -0.10666662
