14
Properties=species:S:1:pos:R:3 pbc="F F F"
H        0.00000000       0.00000000       0.00000000
H       -0.81573808      -0.52769721      -0.06456009
H       -0.71656215       0.28314662       0.59533817
H       -0.46823618       0.87668937      -0.25591892
H       -1.34381282       0.35073781      -0.35624066
H       -0.67111081       0.05228600      -1.07158840
H       -0.28512970      -0.00112991      -0.12212056
H       -1.89840984       0.20218816      -1.03927088
H       -1.40630805      -0.62954283      -0.92044234
H       -2.12114239      -0.26135993      -0.15110582
H       -2.35514045      -0.61428428      -1.46128261
H       -2.87142205      -0.05850548      -0.85085315
H       -2.54270029      -0.95229626      -0.64802080
H       -1.61776018      -0.70165265      -0.82042807
