6
Properties=species:S:1:pos:R:3 pbc="F F F"
H        0.00000000       0.00000000       0.00000000
H        0.35866648      -0.83756196      -0.47241095
H       -0.49209499      -0.92651695       0.09470084
H       -0.06197002      -0.40936196       0.88127375
H        0.78728729      -0.36790094       0.26499233
H        0.37746763      -1.23274529       0.44430465
