6
Properties=species:S:1:pos:R:3 pbc="F F F"
H        0.00000000       0.00000000       0.00000000
H       -0.07115869       0.77136850       0.67323917
H        0.43277019       0.78826749      -0.15972596
H       -0.45308930       1.26641655      -0.14062828
H       -0.39359805       0.55622131      -0.76747787
H       -0.90832329       0.43821320       0.05056429
