6
Properties=species:S:1:pos:R:3 pbc="F F F"
H        0.00000000       0.00000000       0.00000000
H       -0.19310522      -0.77460212      -0.55746114
H       -0.69469815      -0.55577880       0.39568332
H        0.43660918      -0.86484438      -0.09735236
H        0.14288004      -0.52769721       0.80571824
H       -0.15752240      -1.28135788       0.26737368
