6
Properties=species:S:1:pos:R:3 pbc="F F F"
H        0.00000000       0.00000000       0.00000000
H        0.12529835      -0.08895500      -1.01474690
H        0.17815445       0.80572510      -0.51466918
H        0.95751607       0.41002470      -0.93416297
H        0.78752846       0.42692369       0.02441907
H        0.84186053      -0.37210160      -0.41940868
