6
Properties=species:S:1:pos:R:3 pbc="F F F"
H        0.00000000       0.00000000       0.00000000
H       -0.32983679       0.96807545      -0.08579928
H        0.41459331       0.25064358       0.84460109
H       -0.50123823       0.53379023       0.67389190
H        0.59370953       0.68492883       0.03647505
H        0.08851135       1.17997694       0.78013223
