21
Properties=species:S:1:pos:R:3 pbc="F F F"
H        0.00000000       0.00000000       0.00000000
H        0.05739931      -0.52769721       0.81627315
H        0.61492014       0.52595156       0.63132566
H       -0.55821025       0.64286757       0.57310253
H       -0.94445819      -0.25092322       0.56971306
H       -0.35322750       0.05704671       1.39048851
H        0.12259395       0.87984765      -0.39862227
H        0.98417872       0.47253567      -0.32476991
H        0.40762150       0.27488521       0.82328820
H        1.15606809       1.50207639      -0.05158982
H        0.26529080       1.10316515       0.26575810
H        1.08829319       1.46295238       0.09039524
H        0.24843934       0.23698008      -1.18869066
H        0.81711739      -0.64447445      -0.68076593
H        0.82971376      -0.64447445      -0.68640953
H        0.82971376      -0.64447445      -0.68640953
H        1.04474318       0.87984765      -1.11158431
H        0.81711739      -0.64447445      -0.68076593
H        1.03736746      -0.12101713      -0.87601149
H        1.98418486       0.08372907      -1.35113573
H        1.98418486       0.08372907      -1.35113573
