6
Properties=species:S:1:pos:R:3 pbc="F F F"
H        0.00000000       0.00000000       0.00000000
H       -0.29363519      -0.58319080       0.72230726
H        0.00000000       0.26419187       0.99172902
H        0.86129087       0.05067664       0.45129901
H        0.52261770      -0.80102932       0.23822215
H        0.54393566      -0.53514421       1.23195481
