12
Properties=species:S:1:pos:R:3 pbc="F F F"
H        0.00000000       0.00000000       0.00000000
H       -0.01035373      -0.77460212      -0.58986890
H       -0.24536648      -0.21882331      -1.35402846
H        0.53829718      -0.06552219      -0.96966994
H       -0.82156366      -0.24690491      -0.48246759
H       -0.30123281       0.49897972      -0.77996087
H        0.58931005       0.08895500      -0.83553851
H       -1.78507876      -0.47651845      -0.21369222
H       -2.01634336      -0.56547344      -1.20964789
H       -1.31995392      -1.09317064      -0.77995223
H       -1.58202744       0.24818736      -0.89757949
H       -1.04825962      -0.33585989      -1.46147215
