6
Properties=species:S:1:pos:R:3 pbc="F F F"
H        0.00000000       0.00000000       0.00000000
H       -0.51304650      -0.77136850      -0.44169885
H       -0.32338476      -1.35455930       0.31459332
H        0.19253790      -0.56882215       0.84428024
H        0.51642388      -0.87668937      -0.13433556
H       -0.77379620      -0.52072489       0.46231896
