6
Properties=species:S:1:pos:R:3 pbc="F F F"
H        0.00000000       0.00000000       0.00000000
H       -0.13959605      -0.55577880       0.78719991
H        0.76002300      -0.25732699       1.18081892
H        0.86248559       0.24165273       0.35101074
H        0.17539155       0.39111343       0.88744396
H        0.67340565      -0.66108263       0.23990735
