6
Properties=species:S:1:pos:R:3 pbc="F F F"
H        0.00000000       0.00000000       0.00000000
H       -0.46163812      -0.66108263       0.54582143
H        0.33233517      -0.11800810       0.90757269
H        0.08204886      -0.95433736      -0.17484035
H        0.36301535      -1.11400628       0.79926819
H        0.84678620      -0.47113872       0.16207832
