6
Properties=species:S:1:pos:R:3 pbc="F F F"
H        0.00000000       0.00000000       0.00000000
H       -0.21671417       0.94706190      -0.06457304
H        0.52159530       0.19475858      -0.86216664
H        0.36664084       1.11491895      -0.95656425
H       -0.40825313       0.47790521      -0.80497634
H        0.76860231       0.67024595      -0.11551969
