6
Properties=species:S:1:pos:R:3 pbc="F F F"
H        0.00000000       0.00000000       0.00000000
H        0.36925858       0.05341591      -0.95609558
H        0.23411299      -0.79439902      -0.60617250
H       -0.57808107       0.18477097      -0.76140851
H       -0.74588215      -0.56478548      -0.40564558
H       -0.43105701      -0.41330469      -1.31449080
