6
Properties=species:S:1:pos:R:3 pbc="F F F"
H        0.00000000       0.00000000       0.00000000
H        0.97460508       0.08895500       0.30912116
H        0.69790369       0.12438690      -0.74214697
H        0.25236428       0.81366080       0.47151813
H       -0.00259042       0.82120365      -0.46451718
H        1.00427234       0.94659740      -0.25381163
