21
Properties=species:S:1:pos:R:3 pbc="F F F"
H        0.00000000       0.00000000       0.00000000
H       -0.72715116       0.63587439       0.12237607
H       -0.97199094      -0.22896999      -0.25200146
H       -0.34860373       0.15966894       0.95200062
H       -0.63741446      -0.75666720       0.49476171
H       -1.31095147       0.02597433       0.60741222
H       -0.09330821      -0.17973477       0.02632254
H       -0.73062932       0.37440276       1.99527276
H       -0.73062932       0.37440276       1.99527276
H       -0.73062932       0.37440276       1.99527276
H       -0.73062932       0.37440276       1.99527276
H       -0.73062932       0.37440276       1.99527276
H       -0.73062932       0.37440276       1.99527276
H       -0.73062932       0.37440276       1.99527276
H       -0.73062932       0.37440276       1.99527276
H       -0.73062932       0.37440276       1.99527276
H       -0.73062932       0.37440276       1.99527276
H       -0.73062932       0.37440276       1.99527276
H       -0.73296171       0.33571419       2.00164223
H       -0.73062932       0.37440276       1.99527276
H       -0.73062932       0.37440276       1.99527276
