6
Properties=species:S:1:pos:R:3 pbc="F F F"
H        0.00000000       0.00000000       0.00000000
H       -0.12270200      -0.91159266      -0.45526573
H       -0.94376296      -0.08895500      -0.39334759
H       -0.87082332      -0.59628415       0.08228061
H       -0.16838849      -0.40426350      -0.89077693
H       -0.90288037      -0.98745430      -0.62910712
