6
Properties=species:S:1:pos:R:3 pbc="F F F"
H        0.00000000       0.00000000       0.00000000
H        0.47219095      -0.55577880       0.64514065
H        0.13032779      -0.05679908       1.40816736
H       -0.48816153      -0.43977645       0.71857905
H       -0.36664325       0.55791545       0.75359136
H        0.59425974       0.40643466       0.71140271
