21
Properties=species:S:1:pos:R:3 pbc="F F F"
H        0.00000000       0.00000000       0.00000000
H        0.88791460       0.34709048      -0.19798161
H        0.74192291      -0.15188923       0.62528419
H        0.79990137       0.84636509       0.85647821
H        0.09158307       0.84213853       0.21928008
H       -0.06266218       0.38281700       1.16377473
H        1.00948668       0.78686690       0.66217995
H       -0.06633084       0.39891118       0.94328892
H        1.25017929      -0.48021805       1.31970000
H        1.31310356      -1.05715048       0.60448855
H        2.18572903      -0.85108703       0.81520271
H        0.77954966      -1.31194901       1.50622666
H        1.73355305      -0.86889946       1.73636699
H        1.94408000      -1.80675232       1.10091829
H        1.75864434      -1.92476046       0.15236753
H        2.08685303      -0.94979417      -0.17297378
H        2.80453777      -1.50601554       0.30543000
H        1.57309365      -1.06142342       0.58328545
H        0.18845057      -0.34945232       1.46026909
H        1.69792438      -1.64026797       1.06031585
H        2.82544708      -1.90603459      -0.00797123
