6
Properties=species:S:1:pos:R:3 pbc="F F F"
H        0.00000000       0.00000000       0.00000000
H        0.59380746      -0.49897972      -0.58861941
H       -0.09907138       0.08684114      -1.06826162
H       -0.77070338      -0.46354809      -0.49443242
H       -0.10455436      -0.93756604      -1.13058221
H       -0.12190115      -1.02493131      -0.07436258
