6
Properties=species:S:1:pos:R:3 pbc="F F F"
H        0.00000000       0.00000000       0.00000000
H        0.45934626      -0.55622131       0.73002923
H        0.83321655       0.36585209       0.47458023
H        0.40732718       0.24784398       1.34219384
H       -0.45939341      -0.01689900       0.85833150
H       -0.06479928       0.75366068       0.61307216
