6
Properties=species:S:1:pos:R:3 pbc="F F F"
H        0.00000000       0.00000000       0.00000000
H        0.11786898      -0.15148079      -0.95457917
H        0.60628319      -0.63587439      -0.41969675
H       -0.22711188      -0.88651800       0.01698548
H       -0.14209802      -0.97091120      -0.94930196
H       -0.82559723      -0.30069715      -0.57627082
