6
Properties=species:S:1:pos:R:3 pbc="F F F"
H        0.00000000       0.00000000       0.00000000
H        1.00909960       0.15966894       0.09771150
H        0.50718421      -0.51057702       0.69115502
H        0.85184658       0.33822209       1.02101696
H       -0.12139982       0.19850290       0.91509408
H        0.36472762       0.90707743       0.37964973
