6
Properties=species:S:1:pos:R:3 pbc="F F F"
H        0.00000000       0.00000000       0.00000000
H       -0.53245163       0.67024595      -0.56620628
H       -1.07521772      -0.10112256      -0.97082913
H       -0.17997679      -0.14341486      -0.96842337
H       -1.04262805       0.06034589      -0.00424296
H       -0.60355568      -0.73426425      -0.35619608
