6
Properties=species:S:1:pos:R:3 pbc="F F F"
H        0.00000000       0.00000000       0.00000000
H       -0.92501378       0.29845181       0.32954502
H       -0.63333935      -0.72254789       0.36073482
H       -0.75034928      -0.22356817       1.18861699
H       -0.08915752       0.47324857       0.82723647
H        0.17900544      -0.49293435       0.94442773
