21
Properties=species:S:1:pos:R:3 pbc="F F F"
H        0.00000000       0.00000000       0.00000000
H       -0.56912082      -0.52595156       0.67290437
H       -1.00576663       0.19475858       0.06185966
H        0.07016663       0.22961354       0.99783677
H       -0.99068171       0.39747065       1.10055923
H       -0.38237995       0.88025278       0.36110473
H       -0.96175313       0.26865858       1.07601154
H       -0.90911394      -0.26421505      -0.11134960
H        0.55069369      -0.71094757       0.77746016
H        0.55069369      -0.71094757       0.77746016
H        0.22696912      -0.23596704       0.90484381
H       -0.91140127      -0.27082199      -0.09412077
H        0.22106145       0.21021290      -0.39615956
H       -1.15655589       0.25091377       1.12874138
H       -1.56633019       0.14229794       0.28403020
H       -1.55618715       0.12140220       0.30269045
H       -1.56019127       0.18425380       0.30444238
H       -1.87247729       0.00000000      -0.45214975
H       -1.49722719       0.18425380       0.41498795
H       -1.35534787      -0.16179357      -0.36649644
H       -1.34731328      -0.18076767      -0.35665128
