6
Properties=species:S:1:pos:R:3 pbc="F F F"
H        0.00000000       0.00000000       0.00000000
H       -0.49101692      -0.19475858      -0.87994057
H        0.20258152       0.55264992      -0.76321137
H       -0.96179169       0.15148079      -0.00844015
H       -0.26819324       0.89888930       0.10828903
H       -0.79160517       0.72367203      -0.76080716
