21
Properties=species:S:1:pos:R:3 pbc="F F F"
H        0.00000000       0.00000000       0.00000000
H       -0.33100656      -0.58582085      -0.77496612
H        0.22478905       0.23065156      -1.05387104
H        0.78177929      -0.32556975      -0.39530927
H        0.09320402      -0.98665237      -0.20322914
H        0.46108016      -0.76760274      -1.02258694
H        0.37562191       0.27774018      -0.97257173
H        0.19508997      -0.55622131      -0.84016758
H       -0.58511925      -0.41888687       0.48613197
H       -0.67472863      -0.32993186      -0.53238720
H        0.37510860      -0.75123906       0.34181124
H       -0.38574052      -0.96907759      -0.22538888
H       -0.30127621      -0.76722461      -0.28315747
H        0.74669099       0.03449810       0.98108506
H        0.73668492       0.00836259       1.01738143
H        0.70919621      -0.04662150       1.08748329
H        0.74045730      -0.00951248      -0.84614378
H        0.74045730      -0.00951248      -0.84614378
H        0.74045730      -0.00951248      -0.84614378
H        0.74045730      -0.00951248      -0.84614378
H        0.74045730      -0.00951248      -0.84614378
