6
Properties=species:S:1:pos:R:3 pbc="F F F"
H        0.00000000       0.00000000       0.00000000
H        0.73469222      -0.22961354      -0.67884368
H        0.72715116      -0.63587439       0.12237594
H        0.76102263       0.58319080      -0.16968803
H        1.45247459      -0.07813275      -0.03860706
H        0.79391575       0.21292472       0.59475660
