6
Properties=species:S:1:pos:R:3 pbc="F F F"
H        0.00000000       0.00000000       0.00000000
H        0.35866648      -0.83756196      -0.47241095
H       -0.54699153      -0.92651695       0.00213563
H       -0.05982876      -0.46966103       0.85082304
H        0.80262744      -0.42820001       0.29138377
H        0.36779404      -1.29304433       0.39638352
