6
Properties=species:S:1:pos:R:3 pbc="F F F"
H        0.00000000       0.00000000       0.00000000
H        0.05110265      -0.33235219      -0.96966726
H        0.41869119      -0.82740027      -0.14922231
H        0.93165696      -0.07373959       0.19271713
H        1.01380885      -0.38762382      -0.78206718
H        0.54632342       0.50705624      -0.59678668
