12
Properties=species:S:1:pos:R:3 pbc="F F F"
H        0.00000000       0.00000000       0.00000000
H       -0.33764970       0.29845181       0.92208624
H       -0.80913508      -0.28473899       0.30107820
H       -1.23828101       0.49321038       0.47013888
H       -0.79477417       0.24295822      -0.51708454
H       -0.25074005       0.82614899       0.04146391
H       -1.21476197       0.56195712       0.27424747
H       -0.41251978      -0.20034578       1.18630981
H       -0.36774319       0.64513195       0.82368004
H       -0.31467763      -0.89612567      -0.06753159
H        0.12232611      -0.63193381       0.82272357
H       -0.55531251      -0.91119778       0.76674819
