21
Properties=species:S:1:pos:R:3 pbc="F F F"
H        0.00000000       0.00000000       0.00000000
H       -0.81573808      -0.52769721      -0.06456009
H       -0.67973077       0.25064358       0.65054190
H       -0.49944311       0.87668937      -0.18787281
H       -1.35927510       0.32046807      -0.25592262
H       -0.54385948       0.05627620      -0.82039040
H       -0.84732157       0.19608116       0.62484717
H       -0.92451596      -0.03490329       0.01617554
H       -0.87860763       1.12922549      -0.92720687
H       -1.14142096       0.13984269      -0.85389429
H       -0.31912157       2.33567667      -0.48593384
H       -0.45771778       2.37389994      -0.26923317
H       -0.32795477       2.34688473      -0.43101329
H       -0.38159686       2.36397529      -0.34309182
H       -0.62997043       2.32271051      -0.56468242
H        0.05199224       2.42796087      -0.03742129
H        0.05199224       2.42796087      -0.03742129
H        0.05447125       2.39798021      -0.03550458
H       -0.73891187       2.35632133      -0.13004799
H       -0.29561591       2.34688473      -0.40462154
H       -0.27205148       2.35632133      -0.28264651
