6
Properties=species:S:1:pos:R:3 pbc="F F F"
H        0.00000000       0.00000000       0.00000000
H       -0.06381270       0.34709048       0.90747839
H        0.75164497      -0.06227148       0.56760693
H        0.59152317       0.87637383       0.77099556
H        0.71525311       0.62322271      -0.12292486
H       -0.23118603       0.85856140       0.15767980
