6
Properties=species:S:1:pos:R:3 pbc="F F F"
H        0.00000000       0.00000000       0.00000000
H        0.05321160       0.83173102       0.50344110
H        0.30164105       0.84879911      -0.36961290
H       -0.52155960       0.55622131      -0.68696243
H       -0.86587614       0.53327918       0.15771285
H       -0.55531460       1.34384716      -0.09780738
