21
Properties=species:S:1:pos:R:3 pbc="F F F"
H        0.00000000       0.00000000       0.00000000
H       -0.02481474      -0.91159266      -0.47085762
H        0.81120992      -0.52769721       0.10740138
H       -0.56202322      -0.72682166       0.31991893
H        0.13216302      -1.40664077       0.41435945
H        0.15651536      -0.36802828       0.88148451
H        0.32927868      -0.54179639       0.81591946
H        0.50867462      -0.54179639       0.17281434
H       -0.32117426      -0.51196069       0.63197565
H        0.35308078      -2.76208162       1.01766276
H        0.43582767      -2.73896861       1.03297901
H        0.37546453      -2.78356171       0.95740002
H        0.58044529      -2.76208162       0.87460136
H        0.46697810      -2.82152033       0.78316081
H        0.64059794      -2.80338240       0.61586958
H        0.49977970      -2.80338240       0.81929201
H        0.22870696      -2.86562800       0.74907649
H        0.28645408      -2.83795357       0.83571225
H        0.31974933      -2.82152033       0.87579954
H        0.39485565      -2.76208162       1.00068045
H        0.42192900      -2.83795357       0.75696653
