6
Properties=species:S:1:pos:R:3 pbc="F F F"
H        0.00000000       0.00000000       0.00000000
H        0.13252793       0.60990006       0.74734145
H       -0.27275261       0.98938280       0.00718220
H        0.52235103       0.72519094      -0.58555436
H        0.91937232       0.39283875       0.30058342
H        0.63184530       1.33244801       0.21637011
