6
Properties=species:S:1:pos:R:3 pbc="F F F"
H        0.00000000       0.00000000       0.00000000
H        0.59380746      -0.49897972      -0.58861941
H       -0.06510448       0.11573485      -1.07982707
H       -0.73412263      -0.46354809      -0.54727596
H       -0.06400654      -0.90867233      -1.14237881
H       -0.13950765      -1.02493131      -0.09979659
