6
Properties=species:S:1:pos:R:3 pbc="F F F"
H        0.00000000       0.00000000       0.00000000
H        0.88292891      -0.28314662      -0.29719594
H        0.91658068      -0.64899874       0.66110659
H        0.02993284      -0.46966103       0.85239863
H        0.74406737       0.22715572       0.61201930
H        0.20738548      -0.91902101      -0.00161898
