6
Properties=species:S:1:pos:R:3 pbc="F F F"
H        0.00000000       0.00000000       0.00000000
H        0.42017129      -0.49897972       0.72286665
H        0.26112002      -0.84879911      -0.39927104
H        0.46439981      -1.23603344       0.41132429
H        0.98114824      -0.44556379      -0.13490695
H       -0.39823267      -0.96252781       0.31218189
