6
Properties=species:S:1:pos:R:3 pbc="F F F"
H        0.00000000       0.00000000       0.00000000
H        0.19410905      -0.89379078       0.33394706
H       -0.82363909      -0.49504808       0.36037466
H       -0.77002412      -0.37066117      -0.65696359
H        0.24472836      -0.74230999      -0.62654871
H       -0.44303146      -1.27224493      -0.29762661
