21
Properties=species:S:1:pos:R:3 pbc="F F F"
H        0.00000000       0.00000000       0.00000000
H       -0.04850490       0.68549418       0.68978679
H       -0.65891266       0.37845421      -0.60882467
H       -0.68267125       1.14982271       0.06774765
H       -0.85519451       0.17050356       0.32170367
H        0.20060064       0.92740691      -0.39115170
H       -0.00047562       0.77592611       0.54942405
H       -0.07707950      -0.86445391       0.03054924
H        0.91329610      -1.12738490      -0.38064918
H        0.91017854      -1.16104484      -0.27120072
H       -0.10084406      -0.86106020      -0.05060474
H        0.14865372      -0.39223304      -0.76040143
H       -0.60397279       0.75366068       0.12358512
H        0.80017716      -1.22412920      -0.33350280
H        0.36783341      -1.13822532      -0.71723926
H        0.69140923      -0.36510661      -0.37789616
H        1.40779352      -0.70947409      -1.25571084
H        1.39980543      -0.74858987      -1.24592257
H        1.39980543      -0.74858987      -1.24592257
H        1.39980543      -0.74858987      -1.24592257
H        0.48880550      -0.62133944       0.00064903
