6
Properties=species:S:1:pos:R:3 pbc="F F F"
H        0.00000000       0.00000000       0.00000000
H        0.11786898      -0.15148079      -0.95457917
H        0.57534993      -0.63587439      -0.46119091
H       -0.26524824      -0.85371292      -0.02073437
H       -0.18002892      -0.90438956      -0.98935735
H       -0.83343041      -0.21084535      -0.58395219
