6
Properties=species:S:1:pos:R:3 pbc="F F F"
H        0.00000000       0.00000000       0.00000000
H       -0.93989587      -0.24138860      -0.47165081
H       -0.69275069       0.36585209       0.66300273
H       -1.38079727       0.07259086       0.18281265
H       -0.64134121       0.65841174      -0.22134398
H       -0.73566985      -0.62353075       0.39355233
