21
Properties=species:S:1:pos:R:3 pbc="F F F"
H        0.00000000       0.00000000       0.00000000
H        0.50912565      -0.18477097       0.80914259
H       -0.44217610       0.14758122       1.00379825
H       -0.47597766      -0.58423001       0.36241627
H        0.45986515      -0.80206847       0.51991397
H       -0.72994399       0.21783850       0.60645604
H       -0.08985555      -1.00124335       0.97623014
H       -0.55096674      -0.35837579       0.32245523
H       -0.40464562      -0.42615956       1.32960463
H        0.40314886       0.40936196      -0.78610092
H        0.72107810      -0.41600472      -0.39411199
H        1.16407287       0.25788116      -0.19779056
H        0.04085279      -0.16695851      -0.10394400
H        0.50912565       0.36910906       1.40808284
H        0.48472029       0.33537218       1.50413227
H        0.60768920       0.48098347       1.27019429
H        0.53634101       0.63929486       1.58415592
H        0.41142249       0.82534349       1.30790114
H       -1.06994021       1.38641238       1.13225150
H       -1.06994021       1.38641238       1.13225150
H       -1.06994021       1.38641238       1.13225150
