21
Properties=species:S:1:pos:R:3 pbc="F F F"
H        0.00000000       0.00000000       0.00000000
H       -0.21671417       0.94706190      -0.06457304
H       -0.86037463       0.22961354      -0.51025182
H       -0.23557833       0.85354507      -1.13929451
H        0.02723503      -0.13583773      -1.06598198
H        0.60066032       0.52769375      -0.63039678
H       -0.13398784      -0.17974842      -1.01308966
H       -0.85209894       1.46493173      -1.12306011
H       -0.97484708       1.29858100      -1.04141796
H       -0.07240291       1.09077597      -0.37600708
H       -0.69848752      -0.39223304       0.33529601
H        0.35245672       0.10525046       0.78667122
H        0.04858661       0.16903862       1.38360250
H        0.00000000       0.12088757       1.38948798
H        0.29640704       0.10525046       0.80945671
H        0.43319151       0.10525046       0.74526680
H        0.45586646       0.20879784       1.24492383
H        0.40640348       0.30026385       1.24335194
H        0.40640348       0.30026385       1.24335194
H        0.65802109      -0.01507208      -0.56651223
H        0.63773429      -0.01507208      -0.58925617
