17
Properties=species:S:1:pos:R:3 pbc="F F F"
H        0.00000000       0.00000000       0.00000000
H        0.14728610      -1.02954066      -0.28719354
H        0.68975288      -0.01781246       0.75976807
H        0.92449123      -0.35929471      -0.29401401
H        0.74272943      -1.02373552       0.56320715
H       -0.07696354      -0.66068000       0.53131413
H        0.59060657      -0.02694252       0.61779034
H        0.33174911      -1.51943016      -0.01949096
H        0.90541089      -2.39953375       0.40194699
H        0.97902268      -1.83237553       0.77397245
H        1.13009238      -1.74943304       0.84153843
H        1.37969542      -0.97853744      -0.02533907
H        2.03136754      -0.89870602      -0.67131764
H        1.51827908      -0.06999153       0.03529676
H        0.40230694      -1.59086680       0.00050849
H        1.57755888      -0.88021219      -0.26432842
H        1.61131930      -0.96210176      -0.23935580
