6
Properties=species:S:1:pos:R:3 pbc="F F F"
H        0.00000000       0.00000000       0.00000000
H       -0.46163812      -0.66108263       0.54582143
H        0.36398116      -0.11800810       0.89535052
H        0.07586239      -0.95433736      -0.17761210
H        0.35512388      -1.14909589       0.79058516
H        0.83889472      -0.50622833       0.15339530
