7
Properties=species:S:1:pos:R:3 pbc="F F F"
H        0.00000000       0.00000000       0.00000000
H       -0.12270200      -0.91159266      -0.45526573
H       -0.96552014      -0.12438690      -0.32499641
H       -1.04896486      -0.79358459      -0.73125875
H       -0.82864028      -0.91899705       0.22082359
H       -0.09764236      -0.28312266       0.31760517
H       -0.34357190      -0.07103670      -0.91475022
