6
Properties=species:S:1:pos:R:3 pbc="F F F"
H        0.00000000       0.00000000       0.00000000
H        0.50421435      -0.31530851      -0.77097952
H       -0.24199194      -1.04785943      -0.50513637
H       -0.46243116      -0.21783850      -0.82871270
H        0.44327825      -0.75508499       0.09559095
H       -0.59476626      -0.61674964       0.10759991
