6
Properties=species:S:1:pos:R:3 pbc="F F F"
H        0.00000000       0.00000000       0.00000000
H        0.12256700       0.83228827       0.37498182
H       -0.17316402       0.26419187       0.97649413
H       -0.95502305       0.15966894       0.34023610
H       -0.72009981       1.05859089       0.62561619
H       -0.53025049       0.75366068      -0.31446916
