6
Properties=species:S:1:pos:R:3 pbc="F F F"
H        0.00000000       0.00000000       0.00000000
H       -0.77018702      -0.01689900       0.59547228
H       -0.46054479      -0.73944688      -0.06435347
H       -0.35176528      -0.91157907       0.87438935
H        0.41936624      -0.76009828       0.29952359
H        0.07687905      -0.08985233       0.99723190
