6
Properties=species:S:1:pos:R:3 pbc="F F F"
H        0.00000000       0.00000000       0.00000000
H       -0.32983679       0.96807545      -0.08579928
H        0.55022615       0.28314662       0.75175792
H        0.68687534       0.72292304      -0.10613751
H       -0.41772074       0.46909574       0.74567926
H        0.27372223       1.21650422       0.61679548
