6
Properties=species:S:1:pos:R:3 pbc="F F F"
H        0.00000000       0.00000000       0.00000000
H        0.07742673      -0.40936196      -0.88005048
H        0.45146576       0.55292344      -0.80906224
H       -0.42232993       0.75366068      -0.44910342
H       -0.34729579       0.33508494      -1.32149494
H       -0.75722325      -0.10469151      -0.55558568
