8
Properties=species:S:1:pos:R:3 pbc="F F F"
H        0.00000000       0.00000000       0.00000000
H       -0.01035373      -0.77460212      -0.58986890
H       -0.41395289      -0.19141132      -1.25699496
H        0.44243845      -0.02094144      -1.00824153
H       -0.81381255      -0.30494109      -0.30362901
H       -0.43279278       0.49897972      -0.71538138
H        0.42808345       0.19475858      -0.91221571
H       -0.33189517      -0.31530851      -0.85935271
