21
Properties=species:S:1:pos:R:3 pbc="F F F"
H        0.00000000       0.00000000       0.00000000
H       -0.30820453      -0.91843063       0.09775501
H        0.55663162      -0.77136850      -0.38532564
H       -0.03092897      -0.52595156       0.88076228
H        0.86479479      -0.24367130       0.37271920
H        0.52791417      -1.29906571       0.43245909
H        0.78493756      -0.30968291       0.52402622
H       -0.83031899       0.10525046       0.23161992
H       -1.24885190       0.49718362      -0.37211302
H       -0.22361735       0.41888687      -0.72710669
H        0.62353945      -0.83878362      -0.65444040
H       -0.57138753      -0.50852001      -0.45822719
H       -0.46973148       1.08021677      -0.05742100
H        0.17530969       0.43177634       0.05113624
H        0.63781530      -0.52570504      -0.45759109
H       -0.97248244       0.02618796      -0.62957072
H       -0.65529370       0.68431252       0.07300792
H        0.77513200      -0.46535659      -0.37138584
H       -0.67491609       0.68549418      -0.15048867
H       -0.69772983       0.66108263      -0.15557554
H        0.71176302      -0.57693243       0.09423495
