21
Properties=species:S:1:pos:R:3 pbc="F F F"
H        0.00000000       0.00000000       0.00000000
H        0.45279220       0.75366068      -0.41837266
H        0.91450238      -0.09513843      -0.53847575
H       -0.50769836       0.66108263      -0.50326246
H       -0.75013137       0.37793601      -1.40277064
H        0.85892272       0.56888974      -1.28380811
H        0.75321317      -0.38544762      -1.44544554
H        0.16885436       0.33710027      -1.88107514
H        0.23142880      -0.79480958      -0.73254669
H       -0.69543815      -0.20525479      -0.62498009
H       -0.31037462      -0.48690838      -1.48474050
H       -0.06055310       1.01785254      -1.26690269
H        0.05413447      -0.07226169      -0.02557069
H       -1.55788541      -0.43996385      -1.47989202
H       -1.55788541      -0.43996385      -1.47989202
H        0.81483358      -0.99125993      -0.28148577
H        0.81483358      -0.99125993      -0.28148577
H       -1.58735669      -0.43996385      -1.44909847
H       -1.58735669      -0.43996385      -1.44909847
H       -1.58735669      -0.43996385      -1.44909847
H       -1.58735669      -0.43996385      -1.44909847
