21
Properties=species:S:1:pos:R:3 pbc="F F F"
H        0.00000000       0.00000000       0.00000000
H        0.02715597      -1.02162731       0.09414954
H        0.63363391      -0.49897972      -0.54551649
H       -0.06734131      -0.52657926       0.98819733
H        0.87337917       0.34981939      -0.13305652
H        0.40956888      -1.37537837       1.00075543
H        0.48448253       0.34709048       0.76997775
H        1.35561395      -1.15753984       0.92588240
H        0.74038732      -0.56171757       1.42096519
H        1.34619617       0.09917581       0.68038231
H        1.46697378      -0.13022798       0.83854556
H       -0.02993295      -0.46966103       0.85239863
H        1.23149621      -0.36037511       0.60451305
H        1.98289990      -1.65258789       1.56990373
H        1.60547495      -0.80378878       1.86171091
H        2.32523394      -0.34460092       1.73146749
H        0.89720440      -1.94971132       0.68792057
H        0.89720440      -1.94971132       0.68792057
H        0.89720440      -1.94971132       0.68792057
H        0.81909674      -1.08486700       1.12837970
H       -0.30800718      -1.00290143       1.11954820
