12
Properties=species:S:1:pos:R:3 pbc="F F F"
H        0.00000000       0.00000000       0.00000000
H       -0.26684549      -0.92909771       0.11675546
H        0.70383084      -0.59674549       0.14231564
H        0.72057348       0.25205362       0.61909723
H        0.98787504      -0.65016139       1.12709463
H       -0.80402803      -0.25834650       0.44821522
H       -0.52563763      -1.03294861       0.96836066
H       -0.61344171      -0.13826853       1.46349895
H        0.38905078      -0.01428699       1.55736685
H        0.13015223      -0.74816859       1.61565328
H        0.32312095      -1.25782812       0.74736995
H       -0.17830905       0.46966103       0.83407748
