21
Properties=species:S:1:pos:R:3 pbc="F F F"
H        0.00000000       0.00000000       0.00000000
H        0.54069358       0.79439902       0.36042264
H        0.09395593       0.95406795       1.27050793
H       -0.54535592       0.86967474       0.54097450
H        1.15217793       0.44730854       1.03397727
H        1.04353762      -0.10028106       0.35600987
H       -0.69428343       0.40001372       1.38079596
H       -0.83339107      -0.05942297       0.49768326
H       -0.39589220       0.60962808       0.55206716
H       -0.51398677       0.87668937       0.14337812
H       -0.58688736      -0.52123046       0.67480320
H       -0.01831949      -0.54086983       1.65297270
H        0.62294793       0.07384473       1.13894343
H        0.86077189      -0.14195865       2.00138664
H       -0.34679767      -0.56659257       1.85555565
H        1.24069476       1.24191868       0.47826117
H        0.25574911      -0.53727925       0.47784233
H        0.45528254      -0.45571569       1.05203843
H        0.26439404      -0.51814580       0.49399456
H        0.40957868      -0.72254789       0.60290438
H       -0.63704908       0.42363989      -0.27701086
