21
Properties=species:S:1:pos:R:3 pbc="F F F"
H        0.00000000       0.00000000       0.00000000
H        0.65604281      -0.46966103       0.54505712
H       -0.31742489      -0.76811284       0.67394078
H        0.17531449      -0.59404790       1.44325089
H        0.69638944       0.52769721       0.42969567
H        0.89685184       0.16184512       1.36740088
H        0.02460891       0.21526103       1.90560424
H       -0.84756637       0.10857654       0.61319828
H        0.31792963       0.99940705       1.23831630
H       -0.65296257       0.75144410       1.38919735
H       -0.24304730       0.94599116       0.38054270
H       -0.71083617      -0.27018321       1.46826839
H       -0.66687536       0.79451036       1.24395704
H        0.37563413      -1.11742771       1.78788280
H       -0.04703265       0.49419731       1.59532189
H        0.64727622      -0.43576065       0.56340754
H       -0.13037786      -1.31788373       0.36476293
H       -0.13037786      -1.31788373       0.36476293
H       -0.14134350      -1.31788373       0.35838905
H        0.20321101      -0.21518940       1.44032264
H        0.24795616      -1.06525910       0.83165538
