12
Properties=species:S:1:pos:R:3 pbc="F F F"
H        0.00000000       0.00000000       0.00000000
H        0.63848275      -0.52769721      -0.51179713
H        0.16083315       0.08895500      -1.00972450
H        0.91397041      -0.15966894       0.43873432
H        1.41164398       0.67206210       0.34596884
H        1.11673343       0.03827836      -1.18790269
H        0.48330286       0.76773798       0.52685767
H        0.70047212       0.91812599      -1.16230059
H        0.02142714       0.94210368      -0.40657762
H        1.60615718       0.83173102      -0.64901572
H        0.89514589       1.34961557      -0.25167292
H        1.59186876      -0.11037266      -0.24212468
