21
Properties=species:S:1:pos:R:3 pbc="F F F"
H        0.00000000       0.00000000       0.00000000
H       -0.92501378       0.29845181       0.32954502
H       -0.62338656      -0.68549418       0.29924518
H       -1.16068625      -0.33840370       1.03334212
H        0.36690140      -0.80988109       0.53837144
H       -0.89093667       0.63080400       1.29995966
H       -0.14438045       0.82440341       0.73858106
H        0.01236646       0.61833996       1.62249625
H        0.67826748       0.14578420       0.74592590
H       -0.62536103      -0.15302855       1.84969282
H        0.39959553      -0.52673447       1.46940303
H       -0.19723991       0.81092590       0.68382961
H       -1.85165000       0.39609495       2.04273796
H       -1.85165000       0.39609495       2.04273796
H       -1.85165000       0.39609495       2.04273796
H       -1.85165000       0.39609495       2.04273796
H       -1.85165000       0.39609495       2.04273796
H       -1.85165000       0.39609495       2.04273796
H       -1.85165000       0.39609495       2.04273796
H       -1.85165000       0.39609495       2.04273796
H       -1.85165000       0.39609495       2.04273796
