21
Properties=species:S:1:pos:R:3 pbc="F F F"
H        0.00000000       0.00000000       0.00000000
H        0.58115071      -0.52769721      -0.57607329
H        0.68996227      -1.39254165      -0.14217806
H       -0.30962658      -0.92660838      -0.25872537
H       -0.50438452      -0.64346176       0.65229499
H        1.34767592      -0.84300572      -0.06511283
H        1.08801579      -1.40944064       0.74626368
H        0.35242239       0.05341591       0.96242875
H       -0.16138667      -1.57086873       0.37735364
H       -0.42789677      -0.50236291       0.78843796
H        1.29124618      -0.48034292       0.95491600
H       -0.03210655       0.30054960       1.57355261
H       -0.11680398      -0.87401301       0.79915565
H       -0.84853709      -2.01069403      -0.40676948
H        0.01723047       1.04795814       2.27517247
H       -0.86513257      -1.61178279      -1.35224211
H       -1.03182435      -1.31387734       0.32410404
H        0.66631401      -1.48816013      -0.44072503
H        0.07908729       0.42152858       1.57250321
H       -1.38691688      -1.20242083      -0.63934326
H        0.49771151       1.69694901       2.39119482
