12
Properties=species:S:1:pos:R:3 pbc="F F F"
H        0.00000000       0.00000000       0.00000000
H       -0.33764970       0.29845181       0.92208624
H       -0.86456466      -0.25732699       0.32081145
H       -1.36345518       0.31626427       0.94909805
H       -0.74741095      -0.07255602      -0.62797499
H       -1.52377272       0.11221495      -0.07013714
H       -1.50223696       1.09153414       0.23612115
H       -0.18488437       0.72205412      -0.61316234
H       -0.75612760       1.17592740       0.85600793
H       -0.67448044       1.45907402      -0.07201290
H        0.04765703       0.90682507       0.31411594
H       -1.15397072       0.80644733      -0.65571034
