21
Properties=species:S:1:pos:R:3 pbc="F F F"
H        0.00000000       0.00000000       0.00000000
H       -0.93989587      -0.24138860      -0.47165081
H       -0.19768734       0.39891118       0.92472351
H       -0.75623131      -0.43148959       0.54337358
H       -1.26436687       0.31591892       1.02968895
H        0.12513380       1.01362574       0.16892165
H       -1.66668439       0.98616487       0.36468148
H       -0.42998785       0.68025923      -0.70550191
H       -1.41651225       0.60741049      -0.49257678
H       -0.95006138       1.38507605      -0.25228310
H       -1.67521536      -0.05661763       0.13927135
H       -0.71850747       1.27560055       0.80859423
H       -1.19222200       0.46193975       1.05681109
H       -0.95006138       1.08662426       0.72967941
H        0.79005712       1.56529260       0.48810562
H       -0.55376697       0.65240216      -0.46148312
H        0.47718072       0.13714455      -1.01683855
H        0.47718072       0.13714455      -1.01683855
H        0.47487119       0.17604525      -1.01191700
H       -0.06836490       0.58435434      -0.29441762
H       -1.74878132      -0.15243360       0.15374127
