12
Properties=species:S:1:pos:R:3 pbc="F F F"
H        0.00000000       0.00000000       0.00000000
H        0.75986940       0.40936196      -0.45064643
H        0.40375447       0.80827314       0.42535356
H        0.11284617       0.05461246       0.96888721
H        1.54806602      -0.11833525      -0.23077680
H        0.27855355      -0.80302995       0.43007880
H        1.36147273       0.69250858       0.26066390
H        0.88614041      -0.55238640       1.14846385
H        0.97725546       0.47592095       1.20891118
H        0.67291135      -0.55577880      -0.43169567
H        1.24798954      -0.86769491       0.30128807
H        1.69478011      -0.14505339       0.75129610
