12
Properties=species:S:1:pos:R:3 pbc="F F F"
H        0.00000000       0.00000000       0.00000000
H       -0.50007260       0.47200781      -0.61275923
H       -0.82805681       0.43977645       0.26263952
H       -0.91283858       1.18108773      -0.08845890
H        0.36716864       0.69681674      -0.65799516
H       -0.18067920       1.85133362       0.17238003
H       -0.60410273       1.15451694       0.79566395
H        0.66926837       0.64614010       0.26624972
H        0.36498368       1.23891020       0.75311601
H       -0.21068984       1.36585867      -0.73723292
H        0.67079103       1.50424314      -0.14791295
H       -0.03268014       0.43148959       0.93063027
