21
Properties=species:S:1:pos:R:3 pbc="F F F"
H        0.00000000       0.00000000       0.00000000
H        0.51963675      -0.61471456      -0.63673192
H        0.41392720       0.33962280      -0.79836935
H       -0.58171678       0.56923634      -0.70196068
H       -0.94977790      -0.18477097      -0.10882356
H       -1.20454955      -0.04547822      -1.23817825
H       -0.26630741      -0.98938280      -0.05937960
H       -0.44226694       0.39429823      -1.65481091
H       -0.62935150      -0.65537828      -1.73338532
H        0.22375751      -0.31478170      -1.61384702
H       -0.14117810      -1.08938384      -1.15030146
H       -1.10469317      -0.85977030      -0.88152611
H       -1.01908529      -1.04279876      -0.75493419
H        0.35235116      -1.92452133      -0.67796528
H       -0.68852603      -0.48457798      -1.77838659
H        0.06306225      -0.07700205      -0.12684047
H        0.09112683      -1.06911802      -0.60592192
H        0.09112683      -1.06911802      -0.60592192
H       -1.70262814      -0.33737183      -0.83039236
H       -1.70262814      -0.33737183      -0.83039236
H       -1.70262814      -0.33737183      -0.83039236
