21
Properties=species:S:1:pos:R:3 pbc="F F F"
H        0.00000000       0.00000000       0.00000000
H       -0.33100656      -0.58582085      -0.77496612
H        0.31779400       0.18554765      -0.96828556
H       -0.32217231      -0.14680454      -1.69856572
H       -1.05929363       0.48906985      -1.67915559
H       -1.05834687      -0.18690968      -0.17067325
H        0.03361329       1.06223702      -0.51664305
H       -1.15246630      -0.38761953      -1.15374291
H       -1.41214108       0.50688231      -0.71556580
H       -0.66726893       1.17712831      -0.93751109
H        0.13650785       0.87984765      -0.39407435
H       -0.32464552       0.83756196      -0.49640611
H       -1.37580490       0.36468294      -0.71082073
H        0.71422595      -0.14482048       0.22653519
H       -0.17902793      -1.22004068      -0.68840271
H        0.29714823      -0.58416629      -0.12539214
H       -0.08275802       0.73207164      -1.56220102
H        0.29600948       1.08862376      -1.96498036
H        0.27326566       1.10759783      -1.96846771
H        0.48570418       1.28829288      -2.21088624
H       -0.15754557      -0.51526588      -2.40754151
