21
Properties=species:S:1:pos:R:3 pbc="F F F"
H        0.00000000       0.00000000       0.00000000
H        0.14728610      -1.02954066      -0.28719354
H        0.86596662       0.49504808       0.24156377
H       -0.05946882      -0.28213215      -0.95947093
H        0.61459702      -1.02954066      -1.16031849
H        0.46580729       0.61943495      -0.69530559
H        1.09299850      -1.18920958      -0.26647186
H        1.47343564       0.42467636      -0.70414817
H        1.54710174      -0.63062948      -1.00338256
H        1.62339377      -0.32898432      -0.10617745
H        0.77321178      -0.59805107       0.40226835
H        0.94962585       0.37002438       0.11066610
H        0.98578537       0.88822448       0.07086432
H        1.58273196      -0.28594661      -0.96003723
H        0.61917734      -1.63345337      -1.42126667
H        1.27749419      -0.88604486      -1.66890216
H        0.78246886      -0.05251861      -1.49960279
H        0.70604587      -0.04503688      -1.41346526
H        0.18029395      -0.81649435      -0.71442878
H        0.54836953      -1.07048142       0.25476974
H        0.57401156      -1.01847124       0.26636100
