21
Properties=species:S:1:pos:R:3 pbc="F F F"
H        0.00000000       0.00000000       0.00000000
H        0.21426670       0.05341591       1.00227761
H       -0.69429988       0.31760776       1.39981151
H       -0.32632375       0.78522712       0.65547037
H       -0.17966416      -0.84879911       0.44195229
H       -1.31275249       0.55561358       0.82148165
H       -0.38455755      -0.58245850       1.43254972
H       -1.35026670      -0.25804722       1.35496998
H       -1.58237004      -0.24023476       0.35540277
H       -0.99083787      -0.94831061       0.68964982
H       -0.95236540       0.32600003      -0.11164355
H       -0.87070704      -0.59815550      -0.19656032
H        0.10361964       0.00884330       0.92931640
H        0.34767309      -0.40667444       0.88007748
H       -0.72040528       0.28777221       1.47395658
H       -0.58353436      -1.15939093       2.12240124
H       -0.58353436      -1.15939093       2.12240124
H       -0.58353436      -1.15939093       2.12240124
H       -0.58353436      -1.15939093       2.12240124
H       -0.78021270      -0.51682103      -0.21742111
H        0.84933054      -0.82733279       1.12787306
