21
Properties=species:S:1:pos:R:3 pbc="F F F"
H        0.00000000       0.00000000       0.00000000
H       -0.04850490       0.68549418       0.68978679
H       -0.04848194       0.31530851      -0.91994077
H       -0.39331761       0.77885664      -0.07168645
H        0.23396847       1.24240470      -0.73873907
H        0.86671060      -0.19475858      -0.51400942
H        1.07685339       1.32679796      -0.25865191
H        0.69636726       0.01524824       0.46784148
H        0.90946543       1.05134630       0.64772689
H        0.96621531       0.57938945      -0.95324796
H        0.23787543       1.44910264       0.38184372
H        0.22099544       1.29762185      -0.57983685
H        1.31767702      -0.07250780      -0.76908910
H        1.21675587       0.58168530      -0.14791876
H        0.93523532      -0.16785710      -0.51116163
H        0.38087976       1.28537869      -1.78315139
H        1.61361098       0.65912467      -0.86753505
H        0.24860758       0.96154690      -0.10862023
H        0.35406238       1.21322846      -1.82117367
H        0.15027288       1.01992607      -0.12738931
H       -0.78871071      -0.73872918      -0.25968236
