12
Properties=species:S:1:pos:R:3 pbc="F F F"
H        0.00000000       0.00000000       0.00000000
H       -0.46163812      -0.66108263       0.54582143
H        0.26947787      -0.05067664       0.93427753
H       -0.18821847      -0.89379078      -0.33730218
H       -0.13369891      -1.56403673       0.43801835
H        0.66697955      -1.54622424      -0.20379207
H        0.97813922       0.01781246       0.31024212
H        0.84615582      -1.56403673       0.80660510
H        1.04715478      -0.69354421       1.12206435
H        1.32100630      -0.97669083       0.23161834
H        0.62058842      -0.49917299      -0.46263835
H        0.15379921      -1.06505704       1.22314572
