21
Properties=species:S:1:pos:R:3 pbc="F F F"
H        0.00000000       0.00000000       0.00000000
H       -0.29363519      -0.58319080       0.72230726
H        0.00000000       0.26419187       0.99172902
H        0.80936736       0.40936196       0.35413027
H        0.38381809      -1.26868498       0.86092794
H        0.98082620       0.11091015       1.32100785
H        0.88166499      -0.36524016      -0.23138285
H        1.14922011      -0.90146947       1.31361449
H        1.48277307      -0.25172067       0.59403765
H        0.30279499      -0.49059263       1.48473287
H        1.17486668      -1.10901606       0.22683656
H        0.26630890      -0.90283287      -0.09073782
H        1.13287055      -1.18461609       0.38215244
H        0.03481168      -0.54761505       2.08286238
H       -1.05970085      -1.06549263       0.03766029
H       -0.54413837      -0.08406696       1.37345147
H        1.13664579      -0.29445139       2.03448606
H       -1.30154991      -1.81290114       0.69812495
H        0.11413980       0.12621534       0.97424912
H        0.96858269      -0.42690980       0.93473232
H        0.24294692      -1.56963301       0.58272803
