21
Properties=species:S:1:pos:R:3 pbc="F F F"
H        0.00000000       0.00000000       0.00000000
H       -0.21671417       0.94706190      -0.06457304
H        0.98128605      -0.12438690       0.27373242
H        0.48407969       0.66932172       0.70735669
H        1.50612164       0.24146518      -0.52877849
H       -0.17132127       0.39084059      -0.92589837
H        1.42004800       0.80302000       0.30071855
H        0.30036053       1.32551610      -0.79769450
H        1.31178415       1.21238196      -0.57607257
H        0.75746906       0.53654683      -1.20861423
H        0.66784567       1.47326589       0.10505077
H        0.56688839      -0.30597615      -0.77484572
H        0.64782947      -0.24877380      -0.68889862
H       -0.55633390       1.10199666      -0.81849796
H        1.21698725       1.34150159      -0.70893717
H        0.36528704       0.69641829       0.67469227
H       -0.55633390       1.10199666      -0.81849796
H       -0.31235373       1.05249214      -0.38147771
H        0.51586592       0.25571230       0.31830660
H       -0.56291926       1.10199666      -0.84576946
H       -0.12716724       0.58215588      -0.29798567
