12
Properties=species:S:1:pos:R:3 pbc="F F F"
H        0.00000000       0.00000000       0.00000000
H        0.36329272       0.89468008       0.34769225
H        0.72462338       0.52595156      -0.50161719
H        0.88132119      -0.48642808      -0.43951249
H        1.34081674       0.99561262       0.08811575
H        0.54978347      -0.77136850       0.39503509
H        1.48856163      -0.68697530       0.15083392
H        1.14361048      -0.36200655       1.04913998
H        1.65428710       0.09676272      -0.33717448
H        1.08263493       0.71246600       0.98323083
H        1.85333824       0.24891791       0.48879829
H        0.21426670       0.05341591       1.00227761
