21
Properties=species:S:1:pos:R:3 pbc="F F F"
H        0.00000000       0.00000000       0.00000000
H        0.42017129      -0.49897972       0.72286665
H        0.47799775      -0.81366080      -0.23986501
H        0.22333574      -1.43900919       0.38657296
H       -0.45054224      -0.08895500       0.91783589
H       -0.29418513      -1.48390675      -0.32834011
H       -0.79349291      -1.56339610       0.44911298
H       -0.89480114      -0.07205600       0.05157417
H       -0.40231746      -0.67024595      -0.66500747
H       -1.18157911      -1.13379407      -0.18417671
H       -1.28235650      -0.68670672       0.66301012
H       -0.32877570      -1.00738561       1.21736717
H       -1.19723535      -0.75674200       0.85540497
H        0.07385993      -1.41057241       0.40288055
H       -0.60046363      -0.83330017       0.10219678
H       -0.95310330      -0.11800810       0.16040275
H       -0.61918354      -0.93880486       0.64060885
H       -1.45699286      -1.28860211       0.56794965
H       -1.45699286      -1.28860211       0.56794965
H        0.18311992       0.06585310       1.40775347
H       -1.45699286      -1.28860211       0.56794965
