21
Properties=species:S:1:pos:R:3 pbc="F F F"
H        0.00000000       0.00000000       0.00000000
H        0.15607943       0.96046287      -0.03480161
H       -0.81755662      -0.25064358       0.46566057
H       -0.74101114       0.58200866      -0.04267398
H       -0.75220865       0.03250304       1.39497137
H       -0.60674030       1.31381989       0.58540612
H        0.68450612       0.43276566       0.58998781
H        0.35163236       1.28156471       0.93174219
H       -1.17577672       0.56020021       0.69483799
H        0.31209037       0.42392230       1.49406767
H        0.12359864       0.44186500       1.51092517
H       -1.03125620       0.69777799       1.64387214
H       -1.02234936       0.69777799       1.65351176
H       -0.03192615      -0.34709048       0.90915883
H       -0.43415529       1.43247068       0.49166727
H       -0.70941705      -0.29845181       0.67895347
H        1.49694395       0.36205783       0.61138117
H        0.04690289       0.52525848       0.18094367
H        0.88629168      -0.03685334       1.33339059
H        0.56951690      -0.05702244       0.32438323
H        1.21868706       1.66617846       0.41752863
