21
Properties=species:S:1:pos:R:3 pbc="F F F"
H        0.00000000       0.00000000       0.00000000
H        0.05739931      -0.52769721       0.81627315
H        0.85983193       0.55622131      -0.06804986
H        0.00591538       1.01237965       0.16845237
H        0.85412216       1.26302326       0.57561809
H       -0.06554534       1.13676655       1.18469310
H        0.86632252      -0.39891118       0.37905040
H        0.92659628      -0.29808366       1.31134701
H        0.88405502       0.79336226       1.42801666
H        0.74401104       1.28824735       0.66533494
H       -0.47393003       0.28596359       0.75539458
H        0.04080522      -0.48330438       0.88842249
H        0.45956209       1.00983858       0.82533854
H        1.51299238       0.59868014      -0.55497009
H        0.18498103      -0.77473789      -0.94622493
H        0.18498103      -0.77473789      -0.94622493
H        1.37859583       0.23758346       2.05618882
H        0.18498103      -0.77473789      -0.94622493
H        0.18498103      -0.77473789      -0.94622493
H        0.18498103      -0.77473789      -0.94622493
H        0.18498103      -0.77473789      -0.94622493
