21
Properties=species:S:1:pos:R:3 pbc="F F F"
H        0.00000000       0.00000000       0.00000000
H       -0.56912082      -0.52595156       0.67290437
H       -1.00576663       0.19475858       0.06185966
H       -0.55153126       0.19475858      -0.84333050
H       -0.79307204      -0.76358247      -1.27619052
H       -1.42356586      -0.71072257       0.24413377
H        0.09825450      -0.59964043      -0.84903276
H        0.13475771      -0.95433736       0.13835290
H       -0.40449739      -1.44907665      -0.70420426
H       -1.35171080      -1.23123813      -0.64594591
H       -0.79887915      -1.43754423       0.26115954
H       -1.48032796      -0.32380602      -0.74483669
H       -0.28881031      -1.48203456      -0.56178045
H       -0.02558347      -1.01761651      -0.13086601
H       -0.98834336       0.20087010       0.06273904
H       -1.45331573      -1.31062794       0.73139071
H        0.05001706      -0.03733227       0.46450108
H       -1.45331573      -1.31062794       0.73139071
H        0.05001706      -0.03733227       0.46450108
H       -1.45649862      -1.33867264       0.73367774
H       -0.86650145      -0.78522587       0.31344193
