21
Properties=species:S:1:pos:R:3 pbc="F F F"
H        0.00000000       0.00000000       0.00000000
H        0.30968034       0.89379078      -0.23086154
H       -0.64557827       0.62959892       0.03561068
H       -0.71599180       0.01781246       0.73509347
H        0.16266608      -0.28314662       0.91729414
H        0.76895589       0.35972095       0.39531910
H        0.56909984       0.54449189       1.33018708
H       -0.44083720       0.42010498       1.46389914
H       -0.88851506       0.99713159       0.98904949
H       -0.18519884       1.53665829       0.39773995
H        0.06260823       1.41227138       1.38589144
H        0.69631839       1.29270196       0.63210130
H       -0.11783135       1.38818049       1.35517466
H       -0.13743246       0.06126913       0.01754874
H        1.11825562       0.88164032       1.46279252
H       -0.42864102      -0.30643985       2.12189341
H       -0.42864102      -0.30643985       2.12189341
H       -0.42864102      -0.30643985       2.12189341
H       -0.42864102      -0.30643985       2.12189341
H       -0.42864102      -0.30643985       2.12189341
H       -0.38600230      -0.30643985       2.14190292
