12
Properties=species:S:1:pos:R:3 pbc="F F F"
H        0.00000000       0.00000000       0.00000000
H        0.52691501       0.55577880      -0.60127473
H       -0.33262122       0.12428921      -0.95951772
H       -0.94905835       0.05067664      -0.21161525
H       -1.17466211       0.96910727       0.02000733
H       -0.45381933       0.57662821       0.51738214
H       -0.12514973       0.94301307      -1.12395930
H        0.18370649       1.36238122      -0.17904365
H       -0.71753502       1.46896458      -0.47144228
H        0.42904001       0.89193672       0.25432158
H       -0.31119978       1.45550442       0.28164035
H       -1.13114059       0.76715678      -0.91040480
