21
Properties=species:S:1:pos:R:3 pbc="F F F"
H        0.00000000       0.00000000       0.00000000
H        0.87747955       0.49504808      -0.19565487
H        0.83385962      -0.32142434       0.42466277
H        0.17693955      -0.95433736       0.07741807
H       -0.20819250      -0.64286757      -0.77246428
H        0.59248590      -0.62505513      -1.41427469
H        0.54886597      -1.44152761      -0.79395705
H        0.29125062       0.23382181      -0.96033710
H        1.46430254      -1.01003802      -0.96459281
H        1.16762900      -1.21191406      -0.00799656
H       -0.14259750      -0.75603342      -0.80002493
H        0.14666538      -0.68171579      -0.42339736
H        0.07579792      -1.07900357      -0.89943886
H       -0.03141153       1.31358409      -0.85799652
H       -0.03141153       1.31358409      -0.85799652
H       -0.03141153       1.31358409      -0.85799652
H       -0.03141153       1.31358409      -0.85799652
H       -0.03141153       1.31358409      -0.85799652
H       -0.03141153       1.31358409      -0.85799652
H       -0.03141153       1.31358409      -0.85799652
H       -0.03141153       1.31358409      -0.85799652
