21
Properties=species:S:1:pos:R:3 pbc="F F F"
H        0.00000000       0.00000000       0.00000000
H        0.59380746      -0.49897972      -0.58861941
H       -0.09384471       0.02697185      -1.13983023
H        0.64817631      -0.58582085       0.53852141
H        0.51026678      -0.66984487      -1.59018528
H        0.46105391       0.18664078      -1.98830962
H       -0.02659070      -0.11615983       1.06021953
H        0.95037001      -0.16957574       1.37008786
H        1.38250995      -0.61642897      -1.05198205
H        0.38185257       0.88345754      -1.23897827
H        1.27276087       0.77246165      -1.76188171
H        1.21036351       0.86655855      -0.72775918
H        0.38185257       0.44368109      -0.37026799
H        1.34010351      -0.17479679      -1.93604970
H        0.45230299       0.67845035       1.35571301
H        1.30893576      -0.04503411      -0.26666680
H        1.82384038       0.14401066      -1.12132561
H        1.49730575       0.62482327       1.01920986
H        0.68164635       1.20440197       0.50477207
H        1.41496146       0.67845041       0.99359488
H        0.48072881       1.43965733      -0.01544952
