21
Properties=species:S:1:pos:R:3 pbc="F F F"
H        0.00000000       0.00000000       0.00000000
H       -0.51304650      -0.77136850      -0.44169885
H       -0.39540616      -1.56597865       0.10858864
H        0.47550538      -0.95011562      -0.05374776
H       -0.35157254       0.08895500       0.96010822
H       -1.29837549      -1.10243058       0.26055408
H       -0.94633871      -0.01689900       0.22851357
H       -1.05192530      -0.57212764       1.10341465
H       -0.21207166      -0.85527426       1.50657058
H       -1.16573048      -1.10372066       0.27723759
H       -0.72293353      -0.41023833       0.96332276
H       -2.26237202      -0.04293259      -0.49077681
H       -2.18067670       0.62731338       0.28215274
H       -1.86279786       0.88447434      -0.67402726
H        0.53685898      -0.38461375       0.85321856
H       -1.23243392       0.99316549       0.13963337
H       -1.57931852       0.17539442      -1.27810180
H       -1.67269993      -0.63826638      -0.75151187
H        0.23157763      -1.25339937       0.87199485
H       -2.12548256      -0.29202640       0.27186465
H       -1.26756084      -0.92617661      -0.17289591
