21
Properties=species:S:1:pos:R:3 pbc="F F F"
H        0.00000000       0.00000000       0.00000000
H       -0.39122835      -0.01598554      -0.83368021
H        0.49712980       0.55622131      -0.70484304
H        0.34652662       1.11244261       0.14442748
H       -0.98192471       0.29845181      -0.00861683
H        0.33155790       1.58210361      -0.70836514
H       -0.37762666       0.79349989       0.65702206
H       -1.08220327       0.82614899      -0.82073796
H       -0.22945654       0.98771089      -1.28726292
H       -0.22863902       0.78693247      -1.25466144
H       -0.34472382       1.79793680       0.16262968
H       -1.16222501       1.27023959       0.12673704
H       -0.45055756       0.96620578       0.65768886
H       -0.08036005       0.66795313       0.39843285
H       -0.21780068       0.93702519      -1.17679858
H       -0.66756177       0.94100660      -0.39503425
H       -0.65025616       0.92031270      -0.40733948
H       -0.65003467       1.00215900      -0.43525875
H       -0.97149158       0.34439811      -0.57363331
H       -0.95559245       0.35408539      -0.56280899
H       -0.92966580       0.36434147      -0.55831110
