21
Properties=species:S:1:pos:R:3 pbc="F F F"
H        0.00000000       0.00000000       0.00000000
H        0.68725604      -0.43977645       0.53135377
H        0.65224677       0.52945983       0.61747235
H        0.89063662       0.05920327       1.34235096
H       -0.33913863       0.79365170       0.64357781
H       -0.77855563       0.36216211       1.46458530
H       -0.91520476      -0.07761434       0.60668987
H        0.24173650       0.81260645       1.45375586
H       -0.68444461      -0.59217525       1.29593098
H        0.03071856       0.02583390       1.88363755
H       -0.18937573      -0.89468008       0.46584156
H        0.30419302      -0.85636711       1.21768701
H       -0.84288502      -0.08439321       0.48008701
H       -0.19294882       0.06591174       0.26520628
H        0.15736753      -0.68993390      -0.53514576
H        0.02146116      -0.17087293       1.84873486
H       -0.31191790       1.88892508       1.41874313
H        0.73572206      -0.45576200      -0.38828391
H        0.73572206      -0.45576200      -0.38828391
H        0.19228280      -0.68993390      -0.52236032
H        0.04547346      -0.39183909       1.19025826
