21
Properties=species:S:1:pos:R:3 pbc="F F F"
H        0.00000000       0.00000000       0.00000000
H       -0.01035373      -0.77460212      -0.58986890
H       -0.82861108      -0.24690491      -0.59704947
H       -0.51456803      -0.45929360      -1.36084843
H        0.42856207      -0.62312132      -1.44571197
H        0.78028584      -0.21783850      -0.54014927
H       -0.47726738       0.79439902      -0.44098741
H        0.50787967       0.68549418      -0.46927258
H       -0.78757632       0.33628589      -1.37568009
H        0.04598027       0.97916996      -1.24107027
H        0.77051950       0.28353560      -1.35032201
H       -0.49731937       0.72117054      -0.51705199
H       -0.62650883       0.40208602      -0.14596421
H        0.58946073       1.14866590      -0.00922704
H       -0.76155382      -0.48731983       0.58879745
H        1.59438562       0.76405215      -0.08876002
H        0.04700053       0.15914869      -2.06751943
H        0.84075725       0.93393207      -1.09145164
H        0.11482349       1.94532132       0.63925612
H       -0.76155382      -0.48731983       0.58879745
H        0.13787386       1.94532132       0.65551364
