21
Properties=species:S:1:pos:R:3 pbc="F F F"
H        0.00000000       0.00000000       0.00000000
H       -0.96783787       0.05067664       0.09371616
H        0.23352149      -0.92909771      -0.17408639
H       -0.54154491      -0.73433912       0.46985853
H       -0.58716410       0.33235219      -0.77337205
H       -0.19456190      -1.12385631      -1.08630216
H       -0.63534260      -1.35346985      -0.18835235
H       -1.21139050      -0.99946940      -1.02376211
H       -1.36075044      -0.17893690      -0.82618666
H       -0.66445476      -0.20507038      -1.37464011
H        0.24120331      -0.11611538      -0.90009356
H       -0.11605862      -1.05821908      -1.09535849
H       -1.40852785      -0.81873232       0.03479624
H        0.06163645      -0.43901631      -0.96669149
H       -1.39581203      -0.75123811       0.00295073
H       -1.01308846      -1.89036858      -0.23163366
H       -0.86133575      -0.20157951      -0.05873722
H       -0.85864687      -0.16000611      -0.01501298
H       -0.09967074      -1.27644920       1.67657089
H       -0.09967074      -1.27644920       1.67657089
H       -0.09967074      -1.27644920       1.67657089
