21
Properties=species:S:1:pos:R:3 pbc="F F F"
H        0.00000000       0.00000000       0.00000000
H        0.42330277      -0.73181123      -0.48304045
H       -0.28709984      -1.34171128      -0.75026876
H       -0.41515541      -0.92656982       0.07586998
H       -1.15027094      -1.01096308      -0.55701548
H        0.17178738      -0.61380315      -1.41624725
H       -0.63804281       0.43977645      -0.58954132
H       -0.91000879      -0.82127613      -1.46108437
H       -0.91087705      -0.26930347       0.01941526
H        0.22414339       0.09268597      -0.87975526
H       -1.32542372      -0.07386762      -0.89351505
H       -0.60498989       0.15804303      -1.49603271
H        0.09761953      -0.62651753      -1.46992695
H       -0.42982906      -1.42554951      -0.76011139
H       -0.48964494       0.42118046      -0.56226730
H       -0.85853523      -0.33311212      -0.36254647
H        0.48817867      -0.34667450       0.43389213
H        0.48817867      -0.34667450       0.43389213
H        0.48817867      -0.34667450       0.43389213
H        0.48817867      -0.34667450       0.43389213
H        0.50634432      -0.38074756       0.44109184
