21
Properties=species:S:1:pos:R:3 pbc="F F F"
H        0.00000000       0.00000000       0.00000000
H        0.17388797      -0.66108263       0.69339287
H        0.25457457      -0.89379078      -0.29050082
H       -0.51817149      -0.49504808      -0.73467648
H       -1.34831214      -0.76288944      -0.43893096
H       -0.54831469      -1.40575695      -0.44595143
H       -0.15978572      -1.52966523       0.31944191
H       -1.15365708      -1.45917284       0.38111040
H       -1.42399919      -0.50350755       0.63984352
H       -0.57458764      -0.05118257       0.81935775
H       -1.00737941       0.07320433      -0.10289115
H       -0.65748918      -1.01925802       1.14993477
H       -1.38133156      -0.51224589       0.50136065
H        0.25634718      -0.91172624      -0.24385798
H        0.02157165      -0.23452058       0.61429650
H       -0.48370600      -1.64027750       0.16531876
H       -1.60349679      -2.03959608      -0.56685197
H       -1.60349679      -2.03959608      -0.56685197
H       -1.60349679      -2.03959608      -0.56685197
H       -1.60349679      -2.03959608      -0.56685197
H       -1.60349679      -2.03959608      -0.56685197
