21
Properties=species:S:1:pos:R:3 pbc="F F F"
H        0.00000000       0.00000000       0.00000000
H       -0.47398776      -0.23709527       0.75329894
H       -0.31970340       0.74222386       1.01873112
H       -1.26126146       0.06135654       0.16639984
H        0.47404075      -0.47848386       1.20838225
H        0.50683635       0.47718143       0.83561945
H       -0.02644497       0.25934294       1.62061524
H       -0.49674526       0.67583513       0.67868865
H       -0.91614640       1.07907689       0.26267064
H       -0.34365898       0.48072472      -0.21604419
H        0.05618992      -0.01493576       0.39361376
H       -0.36698902      -0.11342680       0.03199212
H       -0.43399820       0.42638040      -0.04664397
H       -0.05919254       0.63298690       0.68838036
H       -0.01627532       0.01938877       0.25231349
H       -0.69804275       0.15552028       0.36705202
H       -0.69134796       0.15552028       0.34716260
H       -0.50641692       0.65295887       0.39262691
H       -0.57344729       0.58513010       0.33279383
H       -1.57073355       2.34080529      -0.01015243
H       -1.57073355       2.34080529      -0.01015243
