21
Properties=species:S:1:pos:R:3 pbc="F F F"
H        0.00000000       0.00000000       0.00000000
H       -0.01035373      -0.77460212      -0.58986890
H       -0.33425450      -0.27955404      -1.42852235
H        0.90558344      -0.57984352      -1.00993085
H        0.43762445       0.01871076      -1.02407336
H        0.34614950       0.26784137      -0.81041920
H        0.21758299      -0.34297892      -0.70748538
H        0.22423893      -0.34272560      -0.58060628
H        1.18412852      -1.19298267      -1.47034967
H        1.21158457      -1.17393756      -1.47782838
H        0.47533980      -0.15894991       0.30635715
H        1.23340428      -1.13372350      -1.51119220
H        1.30650198      -0.43655089      -0.19318771
H        1.30650198      -0.43655089      -0.19318771
H        1.30650198      -0.43655089      -0.19318771
H        1.30650198      -0.43655089      -0.19318771
H        1.30650198      -0.43655089      -0.19318771
H        1.33491802      -0.43655089      -0.20776075
H        0.60917640      -0.47459304      -0.20047408
H        0.60917640      -0.47459304      -0.20047408
H        0.60809898      -0.50457388      -0.19753158
