8
Properties=species:S:1:pos:R:3 pbc="F F F"
H        0.00000000       0.00000000       0.00000000
H       -0.30729049       0.46966103      -0.79564559
H       -0.63005215      -0.26215020      -0.24036348
H       -0.47801951      -0.14414209      -1.19483781
H        0.16188180      -0.78984737      -0.44636655
H        0.52796632      -0.05629054      -1.07679498
H        0.49622977       0.11849281      -0.17303538
H        0.07769516      -0.47247091      -0.53778434
