7
Properties=species:S:1:pos:R:3 pbc="F F F"
H        0.00000000       0.00000000       0.00000000
H       -0.67230010      -0.60990006       0.35227177
H       -0.80743748       0.40247959       0.25152916
H        0.18525624      -0.41514146       0.88141274
H        0.06816047       0.59723818       0.75024879
H       -0.71802604      -0.04928938       1.20321572
H       -0.04436988       0.42135945       0.92244512
