6
Properties=species:S:1:pos:R:3 pbc="F F F"
H        0.00000000       0.00000000       0.00000000
H        0.38154608      -0.49897972      -0.74397767
H       -0.13218972      -1.01761651       0.01750145
H        0.41296539      -0.49166495       0.70996433
H        0.98477340      -0.09275377      -0.04318202
H        0.82679832      -1.04744375       0.02592260
