9
Properties=species:S:1:pos:R:3 pbc="F F F"
H        0.00000000       0.00000000       0.00000000
H        0.83968246      -0.37845421      -0.31585881
H        0.36660659      -0.95566529       0.07501514
H       -0.20095478      -0.87668937       0.49432462
H        1.96098268      -0.00587592      -1.15176940
H        1.90884733       0.18411285      -1.11290348
H        1.81914735       0.18411285      -1.22086835
H        0.58743978      -0.32091057       0.62700754
H        0.03132397      -0.84811521      -0.58795422
