8
Properties=species:S:1:pos:R:3 pbc="F F F"
H        0.00000000       0.00000000       0.00000000
H       -0.06381270       0.34709048       0.90747839
H        0.75164497      -0.06227148       0.56760693
H        0.78819561       0.81757617       0.15216374
H        0.56288636       0.62998235       1.14509523
H       -0.23318839       0.83538860       0.25106481
H        0.40166289       0.92890537       1.11844349
H        0.80443341       0.52769721      -0.14994499
