6
Properties=species:S:1:pos:R:3 pbc="F F F"
H        0.00000000       0.00000000       0.00000000
H        0.68725604      -0.43977645       0.53135377
H        0.66516721       0.52565467       0.65591556
H        1.41395926       0.11600235       0.19807726
H        0.79046559       0.61460966      -0.35883135
H        0.87953323      -0.40701765      -0.39967906
