7
Properties=species:S:1:pos:R:3 pbc="F F F"
H        0.00000000       0.00000000       0.00000000
H        0.36038706      -0.22961354      -0.93312520
H       -0.42827132      -0.79439902      -0.48871025
H       -0.19572993      -0.60962808       0.43856803
H        0.63235039      -0.23117387       0.09343562
H        0.29334709      -1.09601831      -0.19842362
H        0.41053259      -1.07841265      -0.45869243
