6
Properties=species:S:1:pos:R:3 pbc="F F F"
H        0.00000000       0.00000000       0.00000000
H        0.47219095      -0.55577880       0.64514065
H        0.07764685      -0.05679908       1.38230753
H       -0.50375515      -0.46966103       0.68826604
H       -0.40805712       0.52902174       0.69366431
H        0.55373454       0.37754095       0.68522400
