21
Properties=species:S:1:pos:R:3 pbc="F F F"
H        0.00000000       0.00000000       0.00000000
H        0.58115071      -0.52769721      -0.57607329
H       -0.06606346      -1.21319139      -0.81953233
H        0.70448542      -1.05364871       0.29655915
H       -0.15781325      -0.91035604       0.00630733
H        0.56252658      -0.79461014       0.01481264
H       -0.66533870      -1.82170248      -1.98806095
H       -0.69095773      -1.68189323      -2.03801537
H       -0.76604223      -1.72913671      -1.97655678
H       -0.76604223      -1.72913671      -1.97655678
H       -0.66533870      -1.82170248      -1.98806095
H       -0.68315810      -1.72913671      -2.02280688
H       -0.71588379      -1.77575850      -1.98406100
H       -0.62396067      -1.82170248      -2.00837231
H       -0.67461509      -1.77575850      -2.00614882
H       -0.67461509      -1.77575850      -2.00614882
H       -0.76604223      -1.72913671      -1.97655678
H       -0.69800436      -1.63408494      -2.05175567
H       -0.68315810      -1.72913671      -2.02280688
H       -0.69800436      -1.63408494      -2.05175567
H       -0.66533870      -1.82170248      -1.98806095
