21
Properties=species:S:1:pos:R:3 pbc="F F F"
H        0.00000000       0.00000000       0.00000000
H        0.49089283       0.77460212       0.32722577
H       -0.46506232       0.95937312       0.31883684
H       -0.89592278       0.10103029      -0.17282787
H       -0.36980200       0.29845181       0.90966851
H        0.07812682       0.06552219       0.85152614
H       -0.08340645       0.82527876       1.11187422
H       -0.53369701      -0.51483274       0.63564765
H       -0.61495626       0.26069921       0.80128062
H       -0.15922943       0.17464417       0.10712542
H        0.04030657       0.41207814       0.50580853
H       -0.32951981       0.61515093       0.34616014
H       -1.01809871      -0.40958226       1.34869218
H       -0.36107898       0.61515093       0.32630259
H       -0.85099983       0.39182419       0.47642133
H       -0.97151136      -1.59303689       1.05466151
H       -0.97151136      -1.59303689       1.05466151
H       -0.97151136      -1.59303689       1.05466151
H       -0.97151136      -1.59303689       1.05466151
H       -0.97151136      -1.59303689       1.05466151
H       -0.97151136      -1.59303689       1.05466151
