6
Properties=species:S:1:pos:R:3 pbc="F F F"
H        0.00000000       0.00000000       0.00000000
H       -0.96783787       0.05067664       0.09371616
H       -0.08977081      -1.02162731       0.03927828
H       -1.11029577      -0.93267232       0.10204566
H       -0.48765025      -0.46354809       0.77501249
H       -0.59934312      -0.43580645      -0.63189524
