7
Properties=species:S:1:pos:R:3 pbc="F F F"
H        0.00000000       0.00000000       0.00000000
H        0.44047090       0.80291802      -0.09821343
H        0.00000000       0.52595156       0.88130522
H        0.80183983      -0.55622131       0.31779653
H        0.85634154       0.27696645       0.67880040
H        0.91600633       0.11800810      -0.30832991
H        0.30890268       0.10610127       0.64371657
