7
Properties=species:S:1:pos:R:3 pbc="F F F"
H        0.00000000       0.00000000       0.00000000
H        0.12256700       0.83228827       0.37498182
H       -0.17702118       0.15966894       0.99824500
H        0.99028796       0.12438690       0.23912627
H        0.80297399       0.38928246       1.19877183
H        1.02478671       0.81630272       0.55959427
H        0.14671063       0.28405583       0.80144912
