6
Properties=species:S:1:pos:R:3 pbc="F F F"
H        0.00000000       0.00000000       0.00000000
H       -0.33764970       0.29845181       0.92208624
H       -0.75148261      -0.25732699       0.23804444
H       -1.32717252       0.20949681       0.66468513
H       -1.05637467      -0.10581170      -0.21583176
H       -0.72616279       0.73719400       0.10936189
