7
Properties=species:S:1:pos:R:3 pbc="F F F"
H        0.00000000       0.00000000       0.00000000
H        0.52691501       0.55577880      -0.60127473
H       -0.30285335       0.15686762      -1.05479240
H       -0.73346245      -0.29826480      -0.47054112
H       -0.50626373       0.69998950      -0.39847916
H        0.30906886      -0.53994912      -0.61510885
H        0.43914324      -0.36106628      -0.59587634
