21
Properties=species:S:1:pos:R:3 pbc="F F F"
H        0.00000000       0.00000000       0.00000000
H        0.80713278      -0.08439321       0.53802919
H        0.75894290      -0.54794133      -0.37636942
H        0.51817149       0.49504808      -0.73467648
H        1.27001500       0.08568612      -0.27076378
H        0.59350330       0.81028688       0.08279964
H        0.70688325      -0.36260030      -0.45689070
H        0.66203356      -0.06384037      -0.63707852
H        0.65103424       1.04559040       0.85603011
H        0.65103424       1.04559040       0.85603011
H        0.65103424       1.04559040       0.85603011
H        0.65103424       1.04559040       0.85603011
H        0.65103424       1.04559040       0.85603011
H        0.65103424       1.04559040       0.85603011
H        0.64634484       1.03261685       0.89690226
H       -0.08667941      -0.46849176      -0.37329021
H       -0.08667941      -0.46849176      -0.37329021
H       -0.06280249      -0.45490965      -0.39427975
H        0.28167310      -0.32832882      -0.81314105
H        0.28167310      -0.32832882      -0.81314105
H       -0.34989527       0.03424097       0.55608130
