6
Properties=species:S:1:pos:R:3 pbc="F F F"
H        0.00000000       0.00000000       0.00000000
H        0.52815789      -0.26419187       0.83939010
H        0.66520292       0.70907992      -0.05264629
H        1.11301899       0.49124143       0.78405446
H        0.90980291      -0.14329264      -0.00798409
H        0.28282812       0.67445344       0.75681150
