10
Properties=species:S:1:pos:R:3 pbc="F F F"
H        0.00000000       0.00000000       0.00000000
H       -0.72715116       0.63587439       0.12237607
H       -1.18436193      -0.21292472      -0.01385635
H       -0.73866963      -0.08895500       0.70694983
H       -0.45721078      -0.84879911       0.10851958
H       -0.61479789      -0.05067664      -0.75333685
H       -0.55043328      -0.13050805       0.16198939
H       -1.62734699      -0.14419344      -0.39260656
H       -1.23048341       0.76739919      -0.64720815
H       -1.31685829       0.35139447       0.16999274
