7
Properties=species:S:1:pos:R:3 pbc="F F F"
H        0.00000000       0.00000000       0.00000000
H        0.85755634      -0.19475858       0.52914101
H        0.19031344      -0.87984765      -0.37109268
H        0.91915327      -0.15729976      -0.37748870
H        1.13144493      -1.01494217       0.14472362
H        0.21649575      -0.92656982       0.56856942
H        0.09351725      -0.86484438       0.43744665
