6
Properties=species:S:1:pos:R:3 pbc="F F F"
H        0.00000000       0.00000000       0.00000000
H        0.63848275      -0.52769721      -0.51179713
H        0.29946822       0.12438690      -0.97374046
H       -0.60628033      -0.36585209      -0.74289989
H        0.12042290      -0.92163086      -1.07617640
H       -0.13010415      -1.00172651      -0.17988932
