7
Properties=species:S:1:pos:R:3 pbc="F F F"
H        0.00000000       0.00000000       0.00000000
H       -0.73394406      -0.63587439       0.07106813
H       -0.23607597      -0.48439360      -0.75187886
H        0.20000809      -0.91843063       0.25405282
H       -0.13501570      -1.38809168      -0.53031856
H        0.72359180      -0.60878050      -0.40998781
H        0.14018470      -1.38338256      -0.49767300
