21
Properties=species:S:1:pos:R:3 pbc="F F F"
H        0.00000000       0.00000000       0.00000000
H       -0.53245163       0.67024595      -0.56620628
H       -1.12038600      -0.02657080      -1.03748488
H        0.03352076       0.37179413      -1.36865604
H       -0.26030484      -0.24818468      -0.74079776
H       -0.77403253       0.19574888      -0.59578049
H        1.14377832       0.79268777      -2.19633460
H        1.27966714       0.46033558      -1.23487735
H        0.44525933       0.07013988      -2.40446806
H        0.36038160       1.40740228      -1.94786024
H        0.41694438       0.51441383      -1.59814501
H       -0.03632101       0.94601583      -1.87400365
H        0.01159352       1.01574564      -1.95923257
H        0.46615845       0.02051041      -1.88697267
H        0.49333918       0.09389597      -1.96143174
H        0.49575257       0.15549880      -2.06848812
H        0.36058480       1.53213418      -1.95197558
H        0.50024635       0.39870185      -2.12429237
H        0.63160527       0.48088843      -2.22581005
H        0.41126987       1.43284440      -1.92143106
H        0.75851321       0.42335534      -1.71641517
