21
Properties=species:S:1:pos:R:3 pbc="F F F"
H        0.00000000       0.00000000       0.00000000
H        0.36329272       0.89468008       0.34769225
H        0.78377992       0.43148959      -0.50282168
H        0.15489775      -0.36290944      -0.66641057
H       -0.01453167       0.90115058      -0.80311823
H       -0.55165541       0.34885782      -0.03364572
H        0.24631828       0.90463662       0.01543378
H       -0.56263256      -0.09873202      -0.38202873
H       -0.58768260      -0.15291075      -0.40185922
H       -0.37471437       0.08212650      -1.19139540
H        0.21524113      -0.36290944      -0.73526978
H       -0.80923712      -0.29045179       0.13798440
H       -0.80923712      -0.29045179       0.13798440
H        0.71406710      -0.09329094      -2.12876344
H        0.71406710      -0.09329094      -2.12876344
H        0.71406710      -0.09329094      -2.12876344
H        0.71406710      -0.09329094      -2.12876344
H        0.71406710      -0.09329094      -2.12876344
H        0.71406710      -0.09329094      -2.12876344
H        0.71406710      -0.09329094      -2.12876344
H        0.71406710      -0.09329094      -2.12876344
