7
Properties=species:S:1:pos:R:3 pbc="F F F"
H        0.00000000       0.00000000       0.00000000
H        0.07742673      -0.40936196      -0.88005048
H        0.56013650       0.61586303      -0.68635786
H       -0.80729365       0.55622131      -0.30367529
H       -0.29018188       0.30055451      -1.04075909
H       -0.71239591      -0.36052811      -0.46390033
H        0.17187434       0.55110091      -0.75100946
