21
Properties=species:S:1:pos:R:3 pbc="F F F"
H        0.00000000       0.00000000       0.00000000
H       -0.50007260       0.47200781      -0.61275923
H       -0.74060082       0.49897972       0.38805994
H       -0.89277190       1.10788226       0.01134968
H       -0.05916806       0.97187352      -0.00468275
H        0.99003631      -1.05403769       0.06089235
H        1.37458813      -1.63985848      -0.68894613
H        1.88128877      -1.40112817       0.24326067
H        1.41389763      -2.24992728       0.33889839
H        0.67028493      -2.10340667      -0.10379308
H        1.02518678      -1.51913631       0.69184095
H        0.43413979      -1.91168010       0.15444709
H        1.23546660      -2.05922675       0.29538256
H        0.86475050      -2.00799537       0.27002844
H        1.82016194      -0.24044776       0.01645964
H        1.82016194      -0.24044776       0.01645964
H        1.81224012      -0.24044776       0.01874454
H        1.82016194      -0.24044776       0.01645964
H        1.81224012      -0.24044776       0.01874454
H        1.82016194      -0.24044776       0.01645964
H        1.81224012      -0.24044776       0.01874454
