6
Properties=species:S:1:pos:R:3 pbc="F F F"
H        0.00000000       0.00000000       0.00000000
H        0.75986940       0.40936196      -0.45064643
H        0.32045242       0.84085155       0.37036112
H        0.66889530       0.06624943       0.84642839
H        1.30627823       0.35868531       0.35367337
H        0.97369635      -0.36524016      -0.03347903
