6
Properties=species:S:1:pos:R:3 pbc="F F F"
H        0.00000000       0.00000000       0.00000000
H       -0.49101692      -0.19475858      -0.87994057
H        0.19268495       0.55264992      -0.71484607
H       -0.94083500       0.25064358      -0.00825625
H       -0.20262533       0.94746029       0.14279641
H       -0.72030282       0.74388671      -0.75979936
