7
Properties=species:S:1:pos:R:3 pbc="F F F"
H        0.00000000       0.00000000       0.00000000
H        0.87909138       0.39891118       0.34841394
H        0.75354272       0.02045697       1.23671055
H        1.39038610      -0.41756123      -0.00552741
H        0.56800526      -0.57693243       0.43915471
H        0.66304576      -0.01865005       0.59876549
H        0.61168998      -0.13634014      -0.26763842
