8
Properties=species:S:1:pos:R:3 pbc="F F F"
H        0.00000000       0.00000000       0.00000000
H        0.97460508       0.08895500       0.30912116
H        0.16083315       0.08895500      -1.00972450
H        0.14025198       1.01237965       0.09349100
H        0.77320683       0.58812797      -0.53626627
H        0.73118007      -0.43977645      -0.46907708
H        0.40062964       0.73739541      -0.00459051
H        0.13279517       0.80011100      -0.61099720
