13
Properties=species:S:1:pos:R:3 pbc="F F F"
H        0.00000000       0.00000000       0.00000000
H        0.93511528      -0.39891118      -0.14054634
H        1.00237739      -0.76476324       0.81598490
H        0.49526864      -1.25655365      -0.49312031
H        0.20885068      -0.93954659       0.38227537
H        0.29809785      -0.39891115       0.16524190
H        0.39638752      -2.16316175      -1.61702406
H        1.07528222      -1.81607127      -1.01147389
H        0.31701148      -1.20617127      -1.04476595
H       -0.09434450      -2.01983213      -0.70300090
H        0.80190456      -1.18819547      -1.83866322
H        0.75177050      -2.21412063      -0.68072069
H        0.22591174      -1.45237291      -1.32489765
