8
Properties=species:S:1:pos:R:3 pbc="F F F"
H        0.00000000       0.00000000       0.00000000
H        0.12529835      -0.08895500      -1.01474690
H        0.21719751       0.83845192      -0.58486921
H       -0.75730121       0.32040697      -1.05349767
H       -0.69636506       0.76018345      -0.18692720
H       -0.46175042       1.02322292      -1.25788498
H       -0.77537459      -0.31530851      -0.49742922
H       -0.44200206       0.22861278      -0.69551003
