6
Properties=species:S:1:pos:R:3 pbc="F F F"
H        0.00000000       0.00000000       0.00000000
H       -0.92501378       0.29845181       0.32954502
H       -0.23513426      -0.87668937       0.47901097
H       -0.47402161      -0.04495835       0.92534858
H       -1.18956351      -0.51083732       0.57142878
H       -0.74049926      -0.55919063      -0.20311612
