21
Properties=species:S:1:pos:R:3 pbc="F F F"
H        0.00000000       0.00000000       0.00000000
H        0.50421435      -0.31530851      -0.77097952
H        0.34323621      -1.12623441      -1.46424174
H        0.38647264       0.34709048      -0.82354593
H        0.98112607      -0.90839589      -0.76160121
H       -0.46019185      -0.06227148      -1.07582152
H        0.42218763      -0.01002085      -1.63248169
H        0.29041088      -0.26858604      -1.79588389
H       -0.60863978       0.48731983      -0.74579102
H        0.15659273       0.54347503      -1.50433779
H        0.90455317      -0.09952110      -0.68831652
H        0.67312902      -0.11378574      -1.23255062
H       -0.83590674       0.10252425      -0.31042242
H       -0.81094265       0.07283302      -0.29295772
H       -1.19872904      -0.45450452      -0.84157544
H       -1.20649481      -0.45450452      -0.86763811
H       -0.63020355      -0.37935475      -1.80798721
H       -0.63020355      -0.37935475      -1.80798721
H       -0.63020355      -0.37935475      -1.80798721
H       -0.63020355      -0.37935475      -1.80798721
H       -0.60440385      -0.37935475      -1.81350279
