6
Properties=species:S:1:pos:R:3 pbc="F F F"
H        0.00000000       0.00000000       0.00000000
H        0.50912565      -0.18477097       0.80914259
H       -0.30794424       0.11368084       1.35379577
H       -0.40591806      -0.44209796       0.56034005
H       -0.69982004       0.47633266       0.42555237
H        0.14350317       0.61471456       0.80923218
