7
Properties=species:S:1:pos:R:3 pbc="F F F"
H        0.00000000       0.00000000       0.00000000
H       -0.56912082      -0.52595156       0.67290437
H       -0.97797602       0.26419187       0.16458869
H        0.06306279       0.49504808       0.89681339
H       -0.90938759       0.18129104       1.24325812
H       -0.39896005       0.99600309       0.44253442
H       -0.44255260       0.65095210       0.52943426
