18
Properties=species:S:1:pos:R:3 pbc="F F F"
H        0.00000000       0.00000000       0.00000000
H        0.90784711      -0.05341591       0.47569352
H        0.12333469       0.52595156       0.87263244
H       -0.59382695       0.40936196       0.65410495
H       -0.03859514      -0.29971796       1.02421868
H        0.50979352      -0.03651691       1.36413527
H        0.40976259      -0.54751426       0.73613209
H       -1.86328816       1.06308365       0.41747981
H       -1.47975850       2.00518727       0.55411601
H       -0.77407348       1.60627604       1.18356228
H       -1.80035889       1.44153786       1.31239510
H       -0.89595383       1.27337599       0.28637478
H       -1.18047929       0.54264849       1.07096767
H       -0.75734460       1.36074448       1.06725442
H       -2.55409050       1.15073228       1.19911039
H       -1.73920894       1.13657367       1.16333282
H       -1.84352219       1.05186057       0.81074262
H       -1.41025853       1.49939823       0.87921691
