6
Properties=species:S:1:pos:R:3 pbc="F F F"
H        0.00000000       0.00000000       0.00000000
H       -0.07115869       0.77136850       0.67323917
H        0.19491591       0.86032349      -0.31398684
H       -0.77543825       1.13722062       0.02249616
H       -0.73783344       0.39891118      -0.59143531
H       -0.93768948       0.21414021       0.34343266
