7
Properties=species:S:1:pos:R:3 pbc="F F F"
H        0.00000000       0.00000000       0.00000000
H        0.42017129      -0.49897972       0.72286665
H       -0.13415974      -0.83756196      -0.57776719
H        0.13779792      -1.30956984       0.16492081
H        0.72145456      -0.55239564      -0.25677568
H       -0.54553819      -0.69373828       0.43511990
H       -0.42637807      -0.74441493      -0.52991569
