12
Properties=species:S:1:pos:R:3 pbc="F F F"
H        0.00000000       0.00000000       0.00000000
H        0.24483983      -0.86484438      -0.37437752
H       -0.94314647       0.19475858      -0.35477829
H       -0.78490645      -0.66009820      -0.12572342
H       -0.56294876      -1.12975919      -0.94926101
H        0.29877976      -0.81142849      -1.39788187
H        0.66608852      -0.02728242      -0.79194582
H       -0.85321236       0.21257104      -1.37699080
H       -0.12465656       0.59102523      -0.85350269
H       -0.66366470      -0.51504463      -1.76492405
H        0.11455727       0.16747616      -1.63527632
H       -1.28854990      -0.51432133      -0.92571008
