12
Properties=species:S:1:pos:R:3 pbc="F F F"
H        0.00000000       0.00000000       0.00000000
H       -0.29363519      -0.58319080       0.72230726
H        0.00000000       0.33235219       0.97101289
H       -0.83264899       0.28314662      -0.41783309
H       -1.26596236      -0.63386744       0.71377468
H       -0.31601435       0.92601418       0.19301385
H       -0.75843143      -0.62351030      -0.07066470
H       -0.76824760      -0.04804659       1.39378774
H       -1.62505054       0.25992334       0.85609359
H       -1.57517695      -0.09581310      -0.02043079
H       -0.83107090       0.87259829       1.07912183
H       -1.34118772       0.90820175       0.14800331
