12
Properties=species:S:1:pos:R:3 pbc="F F F"
H        0.00000000       0.00000000       0.00000000
H       -0.47398776      -0.23709527       0.75329894
H       -0.10394129       0.71856999       0.69768155
H       -1.14004850       0.44839892       0.93909860
H       -1.49517393      -0.29325044       0.40956524
H       -1.79420793       0.64885324       0.13326260
H       -1.19451714       0.91304511      -0.65660918
H       -0.18653904       0.96807545      -0.28523147
H       -1.54553509      -0.10467523      -0.58478379
H       -0.72667587      -0.56944746      -0.18425888
H       -0.95701408       1.19580746       0.25997943
H       -0.50944448       0.19347334      -0.77897692
