12
Properties=species:S:1:pos:R:3 pbc="F F F"
H        0.00000000       0.00000000       0.00000000
H       -0.50007260       0.47200781      -0.61275923
H       -0.82189578       0.37845421       0.35961190
H       -0.82839060       1.22566843      -0.09097022
H        0.40231752       0.67024595      -0.66500741
H       -0.07475990       1.86853600       0.17751807
H       -0.52432644       1.22566843       0.83928478
H       -0.17765296       1.44484806      -0.77311277
H        0.03820014       0.43105829       0.85409743
H        0.71853220       1.46485615      -0.19953582
H        0.44124991       1.34367657       0.79689091
H        0.80326056       0.58582085       0.25477484
