21
Properties=species:S:1:pos:R:3 pbc="F F F"
H        0.00000000       0.00000000       0.00000000
H       -0.21671417       0.94706190      -0.06457304
H       -0.40736297      -0.36585209      -0.86806196
H        0.35626051       1.36643004      -0.87695086
H       -0.11098981       1.00057793      -1.71429992
H       -0.13551444       0.39413846      -0.98750836
H       -0.71493614       1.03601694      -0.95742565
H       -0.77283227       0.45201382       0.64181483
H       -0.87331152       0.10861003      -1.36749578
H       -1.64778686       0.56222731      -0.76870805
H       -1.19824004       1.12225974      -0.00866383
H       -1.68207359       0.22240028       0.22482362
H       -0.88077813      -0.49504808       0.18022510
H       -1.36885834      -0.21437129      -0.84274358
H       -0.34481421       1.81070399      -0.47763559
H       -0.37226880       1.97989702      -1.55308199
H       -1.19925928       1.62593305      -0.90640616
H       -1.52439046      -0.39231429      -0.58176541
H       -1.09356022       1.06971169      -1.76242566
H       -0.31832886       1.92648113      -2.57658625
H       -0.07348903       2.79132557      -2.95096374
