12
Properties=species:S:1:pos:R:3 pbc="F F F"
H        0.00000000       0.00000000       0.00000000
H        0.88791460       0.34709048      -0.19798161
H        0.73623067      -0.09268597       0.65738350
H        0.73623067       0.67868257       1.33437288
H        1.35587347       0.77858007       0.60709924
H       -0.18018878       0.13692757       1.05835330
H        0.90561843       1.31252170      -0.07272136
H       -0.56464380       0.79439902       0.32160750
H       -0.02004600       1.58900917       0.17994313
H       -0.05570328       1.20637977       1.12836981
H        0.80980790       1.53224075       0.89322662
H        0.09706236       0.76967907      -0.49649858
