21
Properties=species:S:1:pos:R:3 pbc="F F F"
H        0.00000000       0.00000000       0.00000000
H       -0.58002573       0.67024595       0.51736289
H       -0.05592871       1.25343680       1.09465981
H        0.23596060       0.35493743       0.94492322
H        0.33649066       0.63587439      -0.65612394
H       -0.60836339       1.58867657       0.19527119
H       -0.57563657       0.77220416      -0.42571652
H        0.08512634       1.54357266      -0.57304931
H        0.82671285       1.07865345       0.89785397
H        0.35812908       1.92102873       0.28885704
H        0.94458181       1.23013425      -0.05672520
H        0.88835561       0.33124495       0.19720811
H       -0.15129399       1.36480737       0.98486704
H        1.15602851       1.27923489      -0.30596370
H        0.94569463       1.52752900      -0.11788252
H       -0.74308354       0.61739606       0.35755122
H        0.37242392       0.80640298      -0.77192974
H        1.23906219       1.08824480       1.26565516
H        1.35853112       2.04258204       1.41740608
H        1.04790401       1.82474351       0.52067977
H       -0.12337281       2.59301949      -0.43406519
