21
Properties=species:S:1:pos:R:3 pbc="F F F"
H        0.00000000       0.00000000       0.00000000
H       -0.47549847       0.19475858       0.88842231
H        0.34020817       0.77136850       0.58529735
H       -0.50968021       0.43148959      -0.77933735
H       -0.97320014       0.01689900       0.02562657
H       -0.43449783       1.20713818       1.05191588
H       -0.02951387       1.69301629       0.16339907
H        0.32232922       0.89575541      -0.43329585
H       -0.48685205       1.39473510      -0.64378536
H       -0.94369060       1.61650014       0.32996958
H       -1.31956840       0.80822700       0.71898365
H       -1.40917778       0.89718199      -0.29953551
H       -1.29935098       0.83851379      -0.35432488
H        0.50833291       0.70926559       0.53660297
H       -0.04403582      -0.01524010       0.22868526
H        0.22561145       1.09892225      -0.33407038
H       -1.45573318       0.74685609       0.66776335
H       -0.18598211       1.06072140       0.07492316
H       -1.60668159       1.03766787      -0.29935586
H       -0.22352976       0.54459620       0.35363710
H       -0.21248025       0.54459620       0.32712585
