21
Properties=species:S:1:pos:R:3 pbc="F F F"
H        0.00000000       0.00000000       0.00000000
H        0.54628479      -0.64623839      -0.66938484
H        0.41595066       0.30082351      -0.85417581
H       -0.23766905       0.56501538      -1.60003626
H       -0.50769836       0.66108263      -0.50326246
H       -0.61875665      -0.32966471      -1.92812729
H       -0.37809929      -0.92740691      -0.22423470
H       -1.09493279       0.30620968      -1.36511683
H       -1.16523862      -0.73902667      -1.23397946
H       -0.14767241      -1.05179381      -1.21658301
H        0.33740205      -0.27719170      -1.55237353
H       -0.60851443      -0.32924592      -1.78127146
H        0.90828419      -1.51207590      -1.49126542
H        1.71834385      -1.52897489      -0.95128524
H        0.58997649      -1.34259939      -1.40846515
H        0.74726874      -1.65336180      -0.64328378
H       -0.97103262      -0.08984494      -0.20862141
H       -1.06337225      -0.78666168      -0.95644736
H        2.66210699      -1.44001985      -1.34463263
H       -1.14557302       0.25724554      -1.10143983
H        1.80130672      -0.75760639      -1.62317204
