12
Properties=species:S:1:pos:R:3 pbc="F F F"
H        0.00000000       0.00000000       0.00000000
H        1.00909960       0.15966894       0.09771150
H        0.52532858      -0.48319864      -0.53947836
H        1.26328027       0.07258016      -0.84704643
H        0.54057443      -0.04342219      -1.40805483
H        0.41707939       0.99723089       0.13412370
H        1.16183496       0.95242780      -0.44252473
H        0.93634146       0.89868152      -1.31248844
H       -0.30275160      -0.10474443      -0.88461095
H       -0.37396902       0.83756196      -0.49996793
H       -0.07838005       0.77305019      -1.34812117
H        0.35658252       1.45490289      -0.67387950
