21
Properties=species:S:1:pos:R:3 pbc="F F F"
H        0.00000000       0.00000000       0.00000000
H       -0.06381270       0.34709048       0.90747839
H        0.78765756       0.00000000       0.58718538
H        1.34679174       0.77460212       0.39897949
H        0.71281385       0.81366080       1.11672807
H        0.87470430       0.21838081      -0.32287586
H       -0.13621020       1.42952383       0.86374938
H       -0.61857915       0.90357226       0.12617296
H        0.03973770       1.65098071      -0.12146255
H        0.13494647       0.74740851      -0.69028538
H        0.92350537       1.19025433      -0.35665816
H        0.82600462       1.58826292       0.53772861
H       -0.48919487       0.86541659       0.04767293
H        0.87666106       0.37598193      -0.33996946
H        0.03485119       0.39559671       0.94037199
H        0.94788092       1.19602990      -0.22742134
H        0.43356758       0.72569746      -0.19884031
H        0.32594737       0.84879911       0.46708232
H       -0.34470603      -1.34454596       0.13661881
H       -0.34470603      -1.34454596       0.13661881
H        0.34343347       0.83173102       0.34439051
