12
Properties=species:S:1:pos:R:3 pbc="F F F"
H        0.00000000       0.00000000       0.00000000
H        0.50912565      -0.18477097       0.80914259
H       -0.07084239       0.11368084       1.60153604
H       -0.43989328      -0.32609561       0.81511438
H       -0.84598321       0.40571561       0.31751588
H        0.79019308       0.55622131       0.34574080
H        0.78901625       0.65279102       1.33209097
H        0.37220564       1.37269378       0.80615717
H       -0.88195240       0.45913154       1.34180927
H       -0.64556396       1.24830687       0.76147169
H       -0.10775840       1.07384610       1.61762345
H       -0.07662642       0.99766326       0.01210612
