21
Properties=species:S:1:pos:R:3 pbc="F F F"
H        0.00000000       0.00000000       0.00000000
H       -0.32486421      -0.96807545       0.10303906
H        0.56390202      -0.74740851      -0.42037961
H       -0.29791451      -0.36585209       0.91144007
H        0.98384333       0.04720163      -0.04580671
H        0.52442962      -1.54201865       0.14095584
H        0.42655283       0.31139350       0.77453089
H        0.58731383      -0.49023899       1.41564500
H        1.33578503      -0.85945529       0.00078915
H        0.09785253      -1.30795574       1.00700653
H        1.05258751      -1.27782679       0.98034596
H        1.32198906      -0.29850763       0.83310205
H        1.05288172      -1.20885122       0.98161316
H        1.36818099      -0.11768502       0.92333007
H        1.20788145      -1.76611221      -0.33038270
H        0.71153289      -1.40026009      -1.15081811
H        1.68161130      -1.73261225      -1.19340968
H       -0.05640286       0.16190821      -0.12808827
H        1.24445128      -0.87430853      -1.85274172
H        2.01132870      -1.36676013      -0.29298615
H        0.17072010      -1.86380816      -0.41192126
