12
Properties=species:S:1:pos:R:3 pbc="F F F"
H        0.00000000       0.00000000       0.00000000
H        0.80713278      -0.08439321       0.53802919
H        0.75981861      -0.57944131      -0.35975289
H        0.51407975       0.79439902       0.39746207
H        1.47876334       0.67639095       0.45679510
H        1.62390018      -0.20878011      -0.07085735
H        1.27442241      -0.12438690      -0.97573525
H        1.73840570       0.62295091      -0.56398296
H        0.10237939       0.87668937      -0.52369660
H        0.94508904       0.82327348      -1.10705853
H        0.26354325       0.01184499      -0.94098699
H        1.00727797       1.25958180      -0.16421294
