12
Properties=species:S:1:pos:R:3 pbc="F F F"
H        0.00000000       0.00000000       0.00000000
H       -0.32983679       0.96807545      -0.08579928
H        0.23652397      -0.05067664       0.94315916
H        0.90104467       0.03371657       0.23651147
H       -0.53321737       0.46909574       0.72519797
H        1.27511764       0.98938185       0.24636169
H        0.10467249       0.68693423       1.42783856
H       -0.26451701       1.39956498       0.84311086
H        0.40125257       1.57797551       0.11814009
H        0.52221805       0.76431471      -0.40280557
H        0.69826561       1.39320457       1.02682257
H        0.99291140       0.46909574       1.09371448
