21
Properties=species:S:1:pos:R:3 pbc="F F F"
H        0.00000000       0.00000000       0.00000000
H        0.73469222      -0.22961354      -0.67884368
H        0.73779607      -0.60990006       0.17815669
H        0.38978702       0.75366068      -0.47762176
H        1.44886827       0.43146908      -0.71019971
H        0.50198513       0.00000000       0.89959693
H        0.29985583       0.87668937       0.44139111
H        1.42692530      -0.25064358       0.72718966
H        1.10846710       0.70502174       0.92368913
H        1.84882903       0.45843634       0.21021402
H        1.17965412       1.09255171      -0.04796529
H        1.61635923      -0.39036277      -0.20638990
H        1.33516073       0.56888974      -0.61970991
H        0.42038310       0.13187021       1.04497862
H        1.66642666      -0.25271967      -0.14545292
H       -0.12837136       0.21016291      -0.77773166
H        0.34796411      -1.92548990      -0.07193379
H       -0.12837136       0.21016291      -0.77773166
H        0.35698110      -1.92548990      -0.08546074
H        1.94188821      -1.36828792       0.85153848
H        0.34796411      -1.92548990      -0.07193379
