21
Properties=species:S:1:pos:R:3 pbc="F F F"
H        0.00000000       0.00000000       0.00000000
H        0.63772744       0.77136850       0.22719663
H       -0.27448788       0.72254789       0.67520720
H        1.27247310       0.42427802       0.87887675
H       -0.53664577      -0.19475858       0.85288006
H        0.54003286       0.98005682       1.19934833
H        0.96945858      -0.25155711       0.09430277
H       -0.18411469       0.44810897       1.57104921
H        0.79999763       0.20545471       1.72894335
H        1.07024813      -0.61740923       1.04788423
H        0.14515162      -0.63522166       1.49195969
H        0.26144889      -0.85306013       0.55010927
H        0.16810974      -0.56961137       1.50539517
H        0.79508615       0.86239445       0.16269073
H        1.28902817       0.25944024       0.64409322
H       -0.49641743      -0.12438690      -0.88961869
H       -0.96130842      -0.24877380      -1.79611087
H       -1.59296465      -1.04317284      -1.64358401
H       -1.17317224       0.64698160      -0.87179822
H       -1.83123517      -0.04491854      -1.63730979
H       -0.38541847       0.73137480      -0.30577469
