21
Properties=species:S:1:pos:R:3 pbc="F F F"
H        0.00000000       0.00000000       0.00000000
H       -0.90169489       0.25064358      -0.26867270
H        0.61696017       0.43977645      -0.61156988
H       -0.62685370      -0.70502174      -0.52262151
H        0.31514400      -0.53954268      -0.66782784
H        0.53534806       0.00828686      -1.53919053
H       -0.21673614      -0.68852985      -1.49293363
H       -0.41733676       0.23887706      -1.88408542
H       -1.16085947      -0.15209830      -1.27974820
H       -1.01371837      -0.18955013      -1.24015021
H        0.15684980       0.95039058      -1.38917875
H       -0.83385551       0.74981654      -1.03975117
H       -0.17749962       1.00106716      -0.47610521
H       -0.19632672       0.97496629      -0.41835850
H        0.21442759       0.08597559      -0.50202662
H       -1.06739748       1.33563733      -0.23006237
H       -1.10766459       1.27576804      -0.20205945
H       -1.24975336       1.24428356      -1.16367376
H       -1.24041688       1.25904679      -1.13040376
H       -0.02530557       0.12544936      -1.44169950
H        0.18509947      -0.21575893      -0.53434980
