21
Properties=species:S:1:pos:R:3 pbc="F F F"
H        0.00000000       0.00000000       0.00000000
H        0.13252793       0.60990006       0.74734145
H       -0.34069535       0.96807545       0.00897128
H       -1.34481466       1.02149141       0.21443450
H       -0.86839497       0.32467467      -0.36934173
H       -0.16511270      -0.39891118       0.93109161
H       -1.71185791       0.07938772       0.39062682
H       -1.48508012       0.60708493       1.17686367
H       -0.67244428       1.25110495       0.95505553
H       -1.26623333      -0.33997697       1.11993575
H       -0.78964460      -0.46993548       0.18784219
H       -0.65431112       0.35683978       1.55961931
H       -1.55400074       0.10683617       0.28682292
H       -0.59013754       0.38028651       1.43897438
H        0.17592904       1.67269301      -0.62406945
H       -0.77466410       0.37747139       0.47265452
H       -0.63232005      -0.18849617       0.39656287
H       -1.95278478      -1.01273465       2.13054681
H       -1.98782849      -1.01273465       2.10583019
H       -1.98782849      -1.01273465       2.10583019
H       -1.95278478      -1.01273465       2.13054681
