21
Properties=species:S:1:pos:R:3 pbc="F F F"
H        0.00000000       0.00000000       0.00000000
H        0.46564069       0.84879911      -0.10382564
H        0.00000000       0.52769721       0.81828880
H        0.65802932      -0.70907992       0.11074308
H        1.48403776       0.72441220      -0.07700886
H        0.86266333       0.05341591      -0.55342811
H        1.03534448       1.00846803       0.73478466
H        0.22651178      -0.43148959       0.90323478
H        0.82354760       0.21137798       1.43576980
H        1.68172491       0.32550102       0.84771472
H        1.61709738      -0.23605067       0.01168774
H        1.19268346      -0.54949766       0.92867637
H        0.94470817       0.92660838       0.77681118
H        0.60055912      -0.84291786       0.03845551
H        0.90391624       0.09630153      -0.64728016
H        1.72577989       0.32719171       0.90527064
H        1.77823734      -1.13424325       1.62101054
H        1.76477921      -1.16536069       1.60509825
H        0.41046163       0.16070133       0.55551255
H        0.88451356       0.39982373      -0.07225017
H        0.88201910       0.39982373      -0.04648867
