12
Properties=species:S:1:pos:R:3 pbc="F F F"
H        0.00000000       0.00000000       0.00000000
H        0.47219095      -0.55577880       0.64514065
H        0.40926167      -0.17732459       1.54005587
H       -0.41817656      -0.21783850       0.85190117
H       -0.49629152       0.72426522       0.45232323
H       -0.29350299       0.63987201       1.40090930
H        1.09972179       0.08009559       1.03234816
H        0.19840658       1.28004408       0.84800667
H        0.32931143       0.97490883       0.00108221
H        0.99519348       1.05506182       0.58219057
H        0.83300412       0.13351150       0.04273593
H        0.71226364       0.83463061       1.46276915
