12
Properties=species:S:1:pos:R:3 pbc="F F F"
H        0.00000000       0.00000000       0.00000000
H       -0.43620220       0.58582085      -0.72101700
H       -1.38598013       0.40104988      -0.82984054
H       -0.68562734      -0.26003274      -0.68653417
H       -0.47202241       0.22961354       0.88192761
H       -1.57530165      -0.43408760      -0.17346406
H       -1.15851641       0.97702205       0.72885740
H       -0.33413878       0.91817307       0.24461704
H       -1.44110882      -0.06823552       0.77599287
H       -0.76819748      -0.62401432       0.34429720
H       -1.10143363       1.14159966      -0.27757829
H       -1.83709407       0.58582085       0.01302171
