21
Properties=species:S:1:pos:R:3 pbc="F F F"
H        0.00000000       0.00000000       0.00000000
H       -0.07115869       0.77136850       0.67323917
H        0.11337952       0.92284930      -0.27072060
H        0.58028769       1.49391639       0.34633556
H        0.83449936       0.86032349       1.14778566
H        0.44974279      -0.00452089       0.91960281
H        1.08857751       1.19546461      -0.49383804
H        1.53737235       1.12806427       0.40520120
H        1.50338638       0.20963365       0.72674596
H        0.89681417      -0.37845421       0.02361521
H        1.61866403       0.40085447      -0.30498952
H        0.73292387       0.22603256      -0.69959730
H        1.49138129       0.26998621      -0.24906182
H       -0.22797477       0.68989706       0.66667765
H        0.50899899       1.38850188       0.26980269
H        0.04421592       1.66434288       0.78535026
H        0.80728388       0.03625762       1.92279899
H        1.47970200       1.31394076       0.41153020
H        1.17378187       1.12526226       0.04458618
H        0.72779310      -0.08673841       1.34715581
H        0.71407109      -0.08673841       1.33917987
