12
Properties=species:S:1:pos:R:3 pbc="F F F"
H        0.00000000       0.00000000       0.00000000
H        0.19410905      -0.89379078       0.33394706
H       -0.52295643      -0.29845181       0.83112389
H       -0.03499231       0.03390038       1.67062199
H        0.74322253       0.58319080       0.23573221
H        0.19410905      -0.87689179       1.30748463
H        1.36634898       0.02696949       0.83210045
H        0.88944530      -0.19086900       1.65256989
H        1.04451835      -0.89146113       0.86326343
H       -0.17066777       0.59012169       0.81883919
H        0.70725334       0.63660669       1.26002562
H        0.96918148      -0.33235219       0.05960967
