12
Properties=species:S:1:pos:R:3 pbc="F F F"
H        0.00000000       0.00000000       0.00000000
H       -0.02481474      -0.91159266      -0.47085762
H        0.81747240      -0.28314662      -0.44679719
H       -0.42286831      -0.89469367       0.41758412
H        0.06612334      -1.70599174       0.17255849
H        0.88473445       0.08270547       0.50973403
H        1.44339800      -0.71463621       0.24266469
H        0.05837220      -0.24964672       1.01962745
H        0.88333660      -1.30477393      -0.37424728
H        0.09760740      -1.32753754       1.06913090
H        0.98433459      -0.72822046       1.21443701
H        0.95290196      -1.56896579       0.61503899
