21
Properties=species:S:1:pos:R:3 pbc="F F F"
H        0.00000000       0.00000000       0.00000000
H       -0.73394406      -0.63587439       0.07106813
H       -1.11634421      -0.65277338      -0.82422262
H        0.04695554      -0.97187352       0.03630379
H       -0.60191309      -1.38123548      -0.56324041
H       -0.54548734       0.01747257      -1.35168517
H        0.36391664      -0.32961792      -1.32773840
H        0.57844180      -0.31180546      -0.32425165
H        0.14874689       0.39891118      -0.93384594
H        0.26768261      -1.22339809      -0.67886603
H       -0.81762826       0.23924224      -0.62733519
H       -0.37116164      -0.96549231      -1.38591480
H       -0.89637864      -0.55536789      -0.07015127
H        0.34036985      -0.38583612      -1.26753426
H       -0.08345456      -0.59047163      -0.79056978
H       -0.51677001      -0.51022464      -0.53390044
H        0.81392354       0.76828521       0.16654526
H        0.79247916       0.79665542       0.13337032
H        0.81926692       0.76828521       0.13787857
H        0.84506750       0.73898917       0.14222068
H        0.79247916       0.79665542       0.13337032
