21
Properties=species:S:1:pos:R:3 pbc="F F F"
H        0.00000000       0.00000000       0.00000000
H       -0.33100656      -0.58582085      -0.77496612
H       -0.43172249       0.02889371      -1.59062922
H       -1.29347134      -0.23529816      -1.09979784
H       -1.54553652       0.51836252      -0.53719705
H        0.33451983       0.18554765      -0.89901906
H       -1.00851929      -0.25346866      -0.07937831
H       -0.85904253       1.26577103      -0.69026715
H       -1.21570754       0.71312112      -1.48935556
H       -0.80139291       0.65105647       0.12956607
H        0.10583408       0.91843063      -0.30552453
H       -0.22083801       0.98262441      -1.36893034
H        0.02877176       0.96481198      -0.37359041
H        0.02727073      -1.60354114      -0.77811021
H        0.36775616      -2.57161665      -0.79305929
H        0.39924020      -2.95007086       0.10351312
H        1.07400727      -2.48040986       0.62521106
H        1.31884706      -3.34525418       0.25083354
H        2.02000690      -2.59784555       0.19534150
H        0.87512338      -3.39593077      -0.61438453
H        0.59974527      -1.72792804       0.06457877
