12
Properties=species:S:1:pos:R:3 pbc="F F F"
H        0.00000000       0.00000000       0.00000000
H        0.45279220       0.75366068      -0.41837266
H        1.01064575      -0.04094946      -0.34451479
H        0.03330469       0.21783850       0.94841868
H       -0.14791569       0.97149920       0.35916859
H        0.71320367       1.43915486       0.22220865
H        1.39739060       0.85596406      -0.15174010
H        1.46807396       1.05072260       0.85344493
H        1.64433908       0.15693182       0.50974512
H        0.44343886       1.15627015       1.11031461
H        0.74786407      -0.33794031       0.58984423
H        1.02053833       0.27125442       1.22381020
