21
Properties=species:S:1:pos:R:3 pbc="F F F"
H        0.00000000       0.00000000       0.00000000
H        0.17388797      -0.66108263       0.69339287
H        0.33900332      -0.86484438      -0.29185924
H       -0.41785082      -0.46354809      -0.81476849
H       -1.26492667      -0.76181293      -0.61022401
H       -1.15947700      -1.45862961       0.13586628
H       -0.54492182      -1.41060996      -0.62771863
H       -1.50724721      -0.53122270       0.40474579
H       -0.69984472      -0.00527114       0.75801635
H       -0.98880219       0.06414911      -0.22858495
H       -0.85120440      -1.00088370       0.94980288
H       -0.23531747      -1.49593174       0.29487205
H       -0.74013138      -1.02693474       0.98329759
H       -0.54251599      -0.49763551      -0.88196933
H        0.23848885      -0.82478911      -0.31722623
H       -0.52764726      -0.10530382       0.30996218
H       -0.54067147      -0.10530382       0.33481851
H       -0.95335585      -0.96823454      -0.09757859
H       -1.00707865      -0.99695206      -0.02678752
H       -0.23122221      -2.19681001       0.41149291
H       -0.24350294      -2.19681001       0.41127735
