12
Properties=species:S:1:pos:R:3 pbc="F F F"
H        0.00000000       0.00000000       0.00000000
H       -0.13959605      -0.55577880       0.78719991
H        0.56778425      -0.39610988       1.51345253
H        0.75434393      -0.44678652       0.55915260
H        0.57529116       0.49975944       1.72722733
H       -0.06089186       0.92909771       0.28483421
H        0.67856091       1.08558035       0.89088219
H       -0.37863195       0.00044250       1.61593604
H        1.18126106       0.32643801       1.11988616
H        0.80167800       0.52769721       0.16403957
H       -0.71760798       0.25108609       0.73824936
H       -0.23067468       0.97977436       1.24226129
