21
Properties=species:S:1:pos:R:3 pbc="F F F"
H        0.00000000       0.00000000       0.00000000
H        0.69739223       0.29845181      -0.69129914
H        0.42358321       0.82440341       0.14639258
H        0.74503362      -0.69093096      -0.42264348
H        0.46797746       0.26419187       0.87437046
H        1.31142807       0.73385286       0.74760115
H        1.61133265      -0.16509628      -0.63508707
H        2.01832104       0.11913830       0.32837287
H        1.37076855       0.80659097      -0.24838123
H        0.60194582      -0.77988595       0.58974820
H        1.94874763       0.16372341       0.30477831
H        0.06067902      -0.10511011       0.06908467
H        1.50965846      -0.80893904       0.16852814
H        0.49787480       0.37915397      -0.86557132
H        1.21494234       0.29865640       0.02708644
H        0.26949346      -1.52849293      -0.77715063
H       -0.14443278      -2.19873881      -0.11930615
H       -0.75631201      -1.54630542      -0.75013882
H       -0.09726861      -2.19873881      -0.09189171
H       -1.60185742      -2.01596642      -0.63819158
H       -1.14758193      -2.20738792      -1.34841847
