12
Properties=species:S:1:pos:R:3 pbc="F F F"
H        0.00000000       0.00000000       0.00000000
H       -0.92830116      -0.43148959      -0.07346868
H       -0.22944655      -0.70907992       0.62659472
H       -0.75194150      -1.01468039      -0.83297288
H       -0.36038721      -0.22961354      -0.93312514
H       -0.68143439      -1.37016249       0.07275563
H        0.57911688      -0.34762165      -0.70626175
H        0.66916537      -0.69218093       0.25206569
H       -0.02453619      -1.73601460      -0.62578630
H        0.26490033      -1.45286798       0.25971657
H        0.72324747      -1.30195904      -0.57770228
H        0.07979959      -1.07016957      -1.23723316
