21
Properties=species:S:1:pos:R:3 pbc="F F F"
H        0.00000000       0.00000000       0.00000000
H        0.45934626      -0.55622131       0.73002923
H        0.82548535       0.46354809       0.39625874
H        0.05929285       1.01932693       0.16796088
H       -0.52986121      -0.37845421       0.72393399
H       -0.78140128       0.46966103       0.34189394
H       -0.78140128       0.30999207       1.35571325
H       -0.04605731      -0.33838281       1.53325677
H        0.78564686       0.12927288       1.33969021
H        0.87570393       0.32046807       0.39628389
H       -0.46022689       1.19220889       0.99618399
H        0.01676284       0.56436872       1.70481205
H        0.56218708       1.10325384       0.98721164
H       -0.93380725       0.18064415       1.38964665
H        0.09937304       0.35335702       0.85268807
H       -0.25129533       0.70907992       0.61815631
H       -0.24580741       0.66108263       0.67127448
H       -0.06815103       0.47034490       0.60383093
H        0.11984462      -0.41269517       0.62628424
H       -0.58064985      -0.96916121       1.20445001
H       -0.56375498      -0.96916121       1.20593643
