12
Properties=species:S:1:pos:R:3 pbc="F F F"
H        0.00000000       0.00000000       0.00000000
H       -0.67230010      -0.60990006       0.35227177
H       -0.84053838       0.40247959       0.36261925
H       -0.36418408      -0.87409192       1.29492283
H       -1.07578731      -0.14635196       1.17424810
H       -0.63525319       0.70093143       1.32288396
H        0.27512783      -0.78969872       0.56538945
H       -0.37499809      -0.06195875       1.84494424
H        0.31246859       0.51616049       1.44835901
H        0.67265892       0.09014893       0.69147670
H        0.46771389      -0.47439021       1.46625137
H        0.04160605       0.83756196       0.59167784
