21
Properties=species:S:1:pos:R:3 pbc="F F F"
H        0.00000000       0.00000000       0.00000000
H       -0.81573808      -0.52769721      -0.06456009
H       -0.80580151       0.34709048       0.42222381
H       -0.23266649       0.97931916      -0.20031036
H       -0.60103488       1.06827414      -1.15410054
H       -1.40029311       0.42540658      -1.18919218
H       -1.12351835      -0.54266888      -0.99032158
H        0.26446331       0.42309785      -0.90515339
H       -1.58784270       0.04695237      -0.31189036
H       -1.27949452       0.96180505      -0.24938983
H       -0.51639551       0.11260885      -1.51860547
H       -0.66617900       1.04619825      -1.00091016
H       -0.08562633      -0.48355907      -0.84623498
H       -0.87225103       0.41280445       0.32639229
H       -0.66739237       1.09904504      -1.18281293
H       -0.03315499       0.13863198      -1.64430916
H       -0.03257206       0.12128671      -1.64446080
H       -0.50777996       0.01772646      -2.00944471
H       -0.50777996       0.01772646      -2.00944471
H       -1.36897349      -0.43321341      -2.02423334
H       -1.36897349      -0.43321341      -2.02423334
