21
Properties=species:S:1:pos:R:3 pbc="F F F"
H        0.00000000       0.00000000       0.00000000
H       -0.46163812      -0.66108263       0.54582143
H       -0.39970675      -0.25064358      -0.85174716
H       -0.45187810      -0.91159266      -0.13464345
H       -1.44853139      -0.75192374      -0.32041770
H       -1.64281583      -0.02371204      -0.20053768
H       -0.89728165       0.17647934       0.14329383
H       -1.21483147      -0.36987156      -0.24957515
H       -1.19054592      -0.50960183      -0.08171970
H        0.50925648      -0.76658893       0.14948273
H        0.54038262      -0.62322187       0.18376839
H        0.40762922      -0.42606103       0.33666050
H        0.04827762      -0.37609294       0.51881754
H       -0.50048470      -0.42606103       0.58141291
H       -0.32403481      -0.26936948       0.22438037
H       -0.36388212      -0.60003948       0.16843247
H       -0.55815941      -0.51720798      -1.30917239
H       -0.19103870      -0.11553909      -0.01966578
H       -0.27311862      -1.65843832      -0.54035538
H       -0.23078649      -1.65843832      -0.56113517
H       -0.44437903       0.16470876      -1.21353233
