6
Properties=species:S:1:pos:R:3 pbc="F F F"
H        0.00000000       0.00000000       0.00000000
H        0.49089283       0.77460212       0.32722577
H       -0.42235529       1.08991063       0.44813657
H       -0.20305906       0.50408977      -0.36552608
H       -0.19492458       0.74740851       0.67580241
H       -0.62969822       0.85834283       0.17565617
