12
Properties=species:S:1:pos:R:3 pbc="F F F"
H        0.00000000       0.00000000       0.00000000
H       -0.32983679       0.96807545      -0.08579928
H        0.13037400       0.28314662       0.92243779
H       -0.05874245       0.78212631       0.10799617
H       -0.81067330       0.33382326       0.67764646
H       -1.69239044       0.41821647       0.27327824
H       -1.42938685       0.20037797       1.18510962
H       -2.30792999       0.40131748      -0.48096734
H       -1.97512615       0.56969726      -0.64605570
H       -1.68064404      -0.09373060       0.16305399
H       -1.61931026       0.67102683       0.48042971
H       -0.85974169       0.04519808       0.11382674
