21
Properties=species:S:1:pos:R:3 pbc="F F F"
H        0.00000000       0.00000000       0.00000000
H        0.45934626      -0.55622131       0.73002923
H       -0.81541562       0.26419187      -0.56446779
H       -0.08685982      -0.11426234      -0.04097968
H        0.87961817      -0.58224446       0.46041039
H        1.30931556      -1.16949105       0.30350447
H        0.44299304      -1.56840229       0.68255484
H        1.45183408      -0.04512978       0.54503125
H        1.43379843      -0.01039904       0.54839301
H        0.13178271      -1.00113130       0.32101530
H        0.14530575      -0.97447753       0.21323906
H        0.26871973       0.29826945       0.58541262
H        0.27187139       0.27609837       0.70128125
H       -0.30520332      -0.26385936       0.61727655
H       -1.32535672      -0.21044345       0.71605843
H       -1.32126164      -0.21044345       0.75179905
H       -1.31591463      -0.21044345       0.78737444
H       -0.19322753      -0.60139960       1.40954113
H       -1.59518600       0.22188619       0.02567184
H        0.54943144       0.81570864       0.39496332
H        0.57151932       0.60690355       0.67119950
