21
Properties=species:S:1:pos:R:3 pbc="F F F"
H        0.00000000       0.00000000       0.00000000
H        0.11786898      -0.15148079      -0.95457917
H        0.13152114      -0.49897972      -0.82570112
H        0.17454042      -0.34709048      -0.89281845
H        0.55201656      -0.00959132      -0.02423641
H       -0.39208147       0.25253618       0.73256576
H       -0.84870571       0.21558283       0.26237983
H       -0.83778423       0.21558283       0.31136051
H       -0.11743607       0.22354698       0.83089745
H        0.34607381       0.19428839       0.77242476
H       -0.88798738       0.29128850       0.63804406
H        0.30924189       0.00867786       0.39280292
H        0.97796583      -0.09556692      -0.36567026
H        0.27889788       0.06059875       0.41054082
H        0.30366856       0.09488239       0.38572365
H       -1.09337616       0.58302408       0.84534693
H       -1.07795930       0.53470695       0.89559603
H       -1.09158385       0.48574555       0.90691566
H       -1.08167863       0.38612661       0.96481979
H       -0.74118257       0.68873501       2.12463570
H       -0.74118257       0.68873501       2.12463570
