5
Properties=species:S:1:pos:R:3 pbc="F F F"
H        0.00000000       0.00000000       0.00000000
H        0.68725604      -0.43977645       0.53135377
H        0.64687997       0.51456094       0.72022128
H        0.86067855       0.33482566      -0.03254080
H        0.66092044      -0.12830663      -0.07968378
