21
Properties=species:S:1:pos:R:3 pbc="F F F"
H        0.00000000       0.00000000       0.00000000
H       -0.07115869       0.77136850       0.67323917
H        0.18127106       0.68697530      -0.26335996
H       -0.22850712       1.00098205      -0.31460845
H       -0.13167076       0.25064358       0.93161231
H       -0.05694412       0.41543931       0.08225173
H       -0.03423250       0.43315691       0.14249438
H       -0.34195924      -0.16922456      -1.37832713
H       -0.34195924      -0.16922456      -1.37832713
H       -0.34195924      -0.16922456      -1.37832713
H       -0.34195924      -0.16922456      -1.37832713
H       -0.34195924      -0.16922456      -1.37832713
H       -0.34195924      -0.16922456      -1.37832713
H       -0.34195924      -0.16922456      -1.37832713
H       -0.34195924      -0.16922456      -1.37832713
H       -0.34195924      -0.16922456      -1.37832713
H       -0.34195924      -0.16922456      -1.37832713
H       -0.34195924      -0.16922456      -1.37832713
H       -0.34195924      -0.16922456      -1.37832713
H       -0.34195924      -0.16922456      -1.37832713
H       -0.34195924      -0.16922456      -1.37832713
