21
Properties=species:S:1:pos:R:3 pbc="F F F"
H        0.00000000       0.00000000       0.00000000
H       -0.73394406      -0.63587439       0.07106813
H       -0.17060947      -0.35272777      -0.67091769
H        0.09215845      -0.96923625       0.01220146
H       -0.29218763      -0.25631404      -0.42638469
H        0.60765761      -1.66009760       0.11768303
H       -0.02896231      -0.86569858       0.24794841
H        0.83898091      -2.27336740       1.04010415
H        0.83898091      -2.27336740       1.04010415
H        0.83898091      -2.27336740       1.04010415
H        0.83898091      -2.27336740       1.04010415
H        0.83898091      -2.27336740       1.04010415
H        0.83898091      -2.27336740       1.04010415
H        0.83898091      -2.27336740       1.04010415
H        0.83898091      -2.27336740       1.04010415
H        0.83898091      -2.27336740       1.04010415
H        0.83898091      -2.27336740       1.04010415
H        0.83898091      -2.27336740       1.04010415
H        0.83898091      -2.27336740       1.04010415
H        0.83898091      -2.27336740       1.04010415
H        0.83898091      -2.27336740       1.04010415
