7
Properties=species:S:1:pos:R:3 pbc="F F F"
H        0.00000000       0.00000000       0.00000000
H       -0.43620220       0.58582085      -0.72101700
H        0.44573256       0.20736665      -0.88540810
H       -0.45110825      -0.04327694      -0.60095197
H       -0.52756763       0.32906228      -0.94544238
H       -0.76913679       0.32832882      -0.38596189
H        0.06070283      -0.00567965      -0.39633870
