21
Properties=species:S:1:pos:R:3 pbc="F F F"
H        0.00000000       0.00000000       0.00000000
H        0.54069358       0.79439902       0.36042264
H        0.01253581       1.05859089       1.19981289
H       -0.81428766       0.55961120       1.07554257
H       -0.14962584       0.09758228       0.66246474
H       -0.46924347       0.67001212       0.49413472
H        0.03828558       0.08525044       1.20230627
H       -0.03449346      -0.05702244      -0.65451062
H       -0.00353732       0.65178031       0.22702855
H       -0.15442003       0.68196672       0.19400781
H        0.07012521       0.33754024      -0.79705971
H       -0.09747455       1.47450328       0.06970096
H       -0.00288919       1.73868072      -0.69631237
H       -0.44682616       0.82111412      -0.61744678
H       -0.60635471       1.29088831       1.44822526
H       -0.23622531       1.35105968       1.48179054
H        0.26886821       1.25862718       1.51501238
H        0.07145014       1.29088831       1.54402375
H        0.31835163       0.36177415       1.53683519
H       -0.29054213       1.02268958       0.16237947
H       -0.11531454       0.01237825       0.61272293
