21
Properties=species:S:1:pos:R:3 pbc="F F F"
H        0.00000000       0.00000000       0.00000000
H       -0.12270200      -0.91159266      -0.45526573
H       -0.74134827      -0.01781246       0.70951349
H       -1.02665794      -0.86091602      -0.09699705
H       -0.40571073      -0.91160321       0.90068460
H        0.08588788      -0.44194219       0.20368379
H       -1.06804097      -0.08631390       0.49150947
H       -0.70260453      -0.56141222       0.23570180
H       -0.68038249      -0.68805623       0.10775506
H       -1.16171491      -1.43733990       0.92059189
H       -1.16171491      -1.43733990       0.92059189
H       -1.16194797      -1.43733990       0.89404827
H       -0.42871234      -0.96862566       1.55569983
H       -0.45151889      -0.99133843       1.55212092
H       -0.51767272      -1.05879140       1.53205264
H       -0.35959798      -1.63513505       2.21383929
H       -1.19782698      -1.64415419       0.89373344
H       -0.82592273      -0.12483066       0.67101377
H       -0.05099288      -2.25933647       1.29140902
H       -0.05099288      -2.25933647       1.29140902
H       -0.05099288      -2.25933647       1.29140902
