21
Properties=species:S:1:pos:R:3 pbc="F F F"
H        0.00000000       0.00000000       0.00000000
H        0.19410905      -0.89379078       0.33394706
H       -0.46998811      -0.67024595      -0.61903590
H        0.29511291      -1.16529405      -0.14694294
H       -0.65238798      -0.49897972      -0.52294362
H        0.19410905      -0.41804582       1.36065912
H        0.26367441      -0.68223768       2.34994531
H        0.11108917      -0.59784448       1.39200139
H        0.41419017      -0.78748816       3.19872236
H        0.07871252      -0.84090406       2.23025680
H       -0.14652872      -1.58414364       3.77440047
H        0.27251682      -1.42152691      -0.57570183
H        0.61439532      -1.43266284       4.36271095
H       -0.14606196      -1.61155403       3.73491621
H       -0.05664164      -1.41991079       3.56274724
H        0.42407262      -1.83511364       4.69014406
H        0.42407262      -1.83511364       4.69014406
H        0.42407262      -1.83511364       4.69014406
H        0.42407262      -1.83511364       4.69014406
H        0.41716826      -1.82172716       4.70202208
H        0.99713963      -2.21840000       3.73005676
