21
Properties=species:S:1:pos:R:3 pbc="F F F"
H        0.00000000       0.00000000       0.00000000
H        0.36329272       0.89468008       0.34769225
H        0.48659149       0.69681674       0.57532519
H        0.92686880       0.43148959       0.08974905
H       -1.00399864      -0.16785710       0.35768411
H       -1.02065265       0.11534764       0.83194077
H       -1.30952454      -0.61738408       0.35445234
H       -0.88633764       0.15597659       1.14513588
H       -0.84692180      -0.63702345       1.38696575
H       -0.83312249      -1.12847567       1.24456322
H       -1.19677997      -0.91374183       0.19474733
H        1.00606990       1.12830639       0.83908045
H       -1.12719584      -1.06958115       0.15345228
H       -1.23047256      -0.87531197       0.21573281
H       -0.22562580       0.49937305       0.07156303
H       -0.41294396       1.01396215       0.14580362
H       -0.25052345       1.04948020       0.11808183
H       -1.02976799       1.75285053      -0.10773972
H       -1.12857509       1.69267905      -0.03189500
H       -1.16713345       1.66041791       0.19621530
H       -0.25193590       0.50805092      -0.42766887
