21
Properties=species:S:1:pos:R:3 pbc="F F F"
H        0.00000000       0.00000000       0.00000000
H       -0.33100656      -0.58582085      -0.77496612
H        0.31336543       0.16158766      -0.49302784
H        0.52706075      -0.67597431      -1.04633427
H        0.89324796      -0.72665095      -0.14555699
H        0.61127985      -0.20426443       0.41841230
H        0.16670817      -1.17164171      -0.09495306
H        0.30720222      -1.09894454       0.01790220
H        0.48763549      -0.57433301      -0.31283486
H        0.32247722      -1.35180950      -0.23054034
H        1.01302040       0.56038266      -0.47175610
H        0.64769721      -1.11561334      -1.35868990
H        0.65251243      -1.12696934      -1.34004688
H       -1.21300077      -1.04936898      -0.52893120
H        0.39246792      -2.05289531      -1.62596655
H        0.86856055      -1.05118334      -1.26541805
H       -0.64180624      -1.61555004      -1.01555538
H       -0.64180624      -1.61555004      -1.01555538
H       -0.64180624      -1.61555004      -1.01555538
H       -0.64180624      -1.61555004      -1.01555538
H       -0.64180624      -1.61555004      -1.01555538
