21
Properties=species:S:1:pos:R:3 pbc="F F F"
H        0.00000000       0.00000000       0.00000000
H       -0.47549847       0.19475858       0.88842231
H        0.44956642       0.64286757       0.66176677
H        0.40128884       0.69681674       0.63775986
H       -0.92328721      -0.22517416       1.09165573
H       -0.91768444      -0.27465954       1.08503115
H       -0.87261474      -0.32381397       1.10840571
H       -1.72871864       0.01296233       0.08443892
H       -1.72871864       0.01296233       0.08443892
H       -1.72871864       0.01296233       0.08443892
H       -1.72871864       0.01296233       0.08443892
H       -1.72871864       0.01296233       0.08443892
H       -1.72871864       0.01296233       0.08443892
H       -1.72871864       0.01296233       0.08443892
H       -1.72871864       0.01296233       0.08443892
H       -1.72871864       0.01296233       0.08443892
H       -1.72871864       0.01296233       0.08443892
H       -1.72871864       0.01296233       0.08443892
H       -1.72871864       0.01296233       0.08443892
H       -1.72871864       0.01296233       0.08443892
H       -1.72871864       0.01296233       0.08443892
