6
Properties=species:S:1:pos:R:3 pbc="F F F"
H        0.00000000       0.00000000       0.00000000
H       -0.06381270       0.34709048       0.90747839
H        0.40056306      -0.03136373       0.13989222
H        0.62723029       0.59773409       0.26896584
H        1.01408279       0.30058783      -0.17248034
H        0.34584880       0.32022721       0.74050844
