21
Properties=species:S:1:pos:R:3 pbc="F F F"
H        0.00000000       0.00000000       0.00000000
H        0.90784711      -0.05341591       0.47569352
H        0.26910326       0.33235219       0.93297881
H       -0.90169489       0.25064358      -0.26867270
H       -0.79969311       0.97319150       0.45302254
H        1.07256198       0.80201322       1.21921885
H        1.51234877       0.09293330       0.71736813
H        1.12043881       0.45492274       0.31076032
H        0.13774472       1.37210274       0.57713604
H        0.49087793       0.87705469      -0.24963373
H       -0.69411492       0.72270715      -0.07000659
H       -0.56198317       1.71919322       1.15848780
H        0.11668965       0.29353631       0.55768150
H       -0.12835178       1.49336207       1.26319742
H       -0.33310971       0.88202310       1.18878984
H        0.46808589      -0.01445919       1.36518240
H       -0.12049741       0.74569166       0.17627871
H        0.42706066      -0.19098240       0.92922956
H        1.00525415      -0.41386294       0.59410071
H        1.45280254       2.16724801       1.51320279
H        1.44225109       2.16724801       1.52636600
