13
Properties=species:S:1:pos:R:3 pbc="F F F"
H        0.00000000       0.00000000       0.00000000
H        0.52815789      -0.26419187       0.83939010
H       -0.61486608       0.66108263      -0.36465108
H       -0.06837100       0.67889506       0.50388199
H       -0.07752578       0.55166692       0.73347878
H        0.50442541      -0.78013718      -0.51268703
H        0.94990957      -0.71315962      -0.19259399
H        0.13345855      -0.62876642      -0.71637505
H        0.71087366      -0.15693831       0.63614219
H       -0.59902042       1.40289676       0.08658698
H       -0.48002243       1.00512815      -0.19201595
H        0.20840755      -0.13307181      -0.00727385
H        0.48250949      -0.75747526      -0.38231301
