21
Properties=species:S:1:pos:R:3 pbc="F F F"
H        0.00000000       0.00000000       0.00000000
H       -0.78841746      -0.36585209      -0.54577839
H       -0.57313156       0.66108263      -0.42725986
H        0.42028961       0.55622131      -0.75319219
H       -0.01198331      -0.10486132      -1.32255220
H       -0.24144173      -0.58369058      -1.32129419
H       -0.04984540      -0.05054358      -1.09637165
H        0.19942659      -0.55765700      -2.75480652
H       -0.66090018      -0.35159355      -3.01115298
H       -0.67638069      -0.14829504      -2.63885283
H       -0.03499508      -0.87754512      -3.63158965
H        0.34591359      -1.16069174      -2.78141475
H       -0.65126896      -0.93107820      -2.86033487
H       -0.31928933      -0.45161182      -2.83406091
H        0.19889539      -0.50562119      -2.75307941
H       -1.43663192      -0.75209576      -3.29313469
H       -1.43663192      -0.75209576      -3.29313469
H       -1.43663192      -0.75209576      -3.29313469
H       -1.43663192      -0.75209576      -3.29313469
H       -1.43663192      -0.75209576      -3.29313469
H       -1.43663192      -0.75209576      -3.29313469
