21
Properties=species:S:1:pos:R:3 pbc="F F F"
H        0.00000000       0.00000000       0.00000000
H        0.35866648      -0.83756196      -0.47241095
H        1.16605186      -1.13601375      -1.03131974
H        0.14800018      -0.25064358      -0.92915803
H        0.69502580      -0.04316294      -1.02839327
H        1.65079737      -0.16117105      -1.17204416
H        1.29897547      -0.29133695      -1.18300200
H        0.79221308       0.19428839      -0.29800251
H        1.30546653      -0.51479155       0.12842160
H        0.82549053      -0.25253618      -0.09458282
H        1.23300755      -0.01980019      -1.20468330
H        0.95524931      -0.99061412      -0.60187685
H        0.88478619      -0.64555728      -0.85649240
H       -0.53927910      -0.46966103      -0.66080058
H        1.26120341      -1.19062662      -0.71146822
H        1.43860388      -2.00793934       0.18118848
H        1.43667006      -2.00793934       0.18582833
H        1.43667006      -2.00793934       0.18582833
H        1.43667006      -2.00793934       0.18582833
H        1.43667006      -2.00793934       0.18582833
H        1.43667006      -2.00793934       0.18582833
