21
Properties=species:S:1:pos:R:3 pbc="F F F"
H        0.00000000       0.00000000       0.00000000
H        0.21426670       0.05341591       1.00227761
H       -0.80256194       0.17780280       1.06481767
H       -0.71374309       0.41926801       0.76087767
H       -1.01190722      -0.15966894       0.06223734
H       -0.27238116      -0.73255098       0.74384469
H       -0.93495691      -0.15148079       0.22576520
H        0.13063802       0.74172658       1.23598170
H        0.23910464       0.46870184       1.34834087
H        0.29238418       0.37257829       1.36768854
H        0.15028092       0.22517416       1.42182541
H        1.58125007       0.53916144       1.38360143
H        1.58125007       0.53916144       1.38360143
H        1.58125007       0.53916144       1.38360143
H        1.58125007       0.53916144       1.38360143
H        1.58125007       0.53916144       1.38360143
H        1.58125007       0.53916144       1.38360143
H        1.58125007       0.53916144       1.38360143
H        1.58125007       0.53916144       1.38360143
H        1.58125007       0.53916144       1.38360143
H        1.58125007       0.53916144       1.38360143
