8
Properties=species:S:1:pos:R:3 pbc="F F F"
H        0.00000000       0.00000000       0.00000000
H       -0.47398776      -0.23709527       0.75329894
H       -0.15188882       0.70500839       1.00233054
H       -0.02458021       0.61170387       0.91340476
H       -0.80202806      -1.00844300       0.52621454
H       -0.73480409      -0.94146544      -0.01820868
H       -0.44784796      -0.65826070      -0.39616764
H       -0.34031126      -0.31758171       0.27385893
