7
Properties=species:S:1:pos:R:3 pbc="F F F"
H        0.00000000       0.00000000       0.00000000
H        0.30968034       0.89379078      -0.23086154
H       -0.52260965       0.46230119      -0.64851451
H        0.35074484       0.01689900      -0.90815932
H        0.90948826       0.21783850      -0.27099505
H        0.60126281       0.95554429      -0.97332573
H       -0.38200587       0.60614836      -0.69904006
