21
Properties=species:S:1:pos:R:3 pbc="F F F"
H        0.00000000       0.00000000       0.00000000
H        0.83968246      -0.37845421      -0.31585881
H        0.46497226      -0.91159266       0.07825253
H       -0.03582307      -0.96807545       0.33892551
H        0.25387025      -1.17285323      -0.03465053
H       -0.44358081      -0.73898917      -0.73321342
H       -0.10794327       0.15480161      -0.54204226
H       -0.15665516      -0.33605605      -0.79121608
H        0.29508883      -0.65003419      -0.02626359
H       -0.40540016      -0.66859913       0.18489079
H       -1.33372498       0.20622951      -0.09361970
H       -2.22088575       0.58468372      -0.22695859
H       -2.58132744       1.54034901      -0.12641233
H       -1.33372498       0.20622951      -0.09361970
H       -1.33372498       0.20622951      -0.09361970
H       -0.88923275       0.45583236       0.11975043
H       -1.45070338       0.12791604      -0.15958065
H       -3.51318526       1.10052383      -0.59402955
H       -3.51318526       1.10052383      -0.59402955
H       -3.51318526       1.10052383      -0.59402955
H       -3.51318526       1.10052383      -0.59402955
