21
Properties=species:S:1:pos:R:3 pbc="F F F"
H        0.00000000       0.00000000       0.00000000
H        0.47219095      -0.55577880       0.64514065
H        0.15731618      -0.05679908       1.41969466
H       -0.84288502      -0.08439321       0.48008701
H       -0.12572366      -0.67021406       0.92259961
H       -0.31445831       0.44330400       1.10487640
H        0.02205324       0.25788200       0.35636199
H       -0.44359830       0.22094110       0.56770319
H       -0.55420196      -0.31439018       0.41628182
H       -0.48117581       0.43824899       0.78678137
H       -0.68957984      -0.37398255      -0.28611600
H       -0.87465978      -0.32241648       0.02745545
H        0.40648246      -0.95752215       0.60951430
H        0.41552147      -0.92756200       0.58012331
H       -0.40670213      -1.95152938       0.19508189
H       -0.40670213      -1.95152938       0.19508189
H       -0.40670213      -1.95152938       0.19508189
H       -0.40670213      -1.95152938       0.19508189
H       -0.40670213      -1.95152938       0.19508189
H       -0.40670213      -1.95152938       0.19508189
H       -0.40670213      -1.95152938       0.19508189
