6
Properties=species:S:1:pos:R:3 pbc="F F F"
H        0.00000000       0.00000000       0.00000000
H        0.79402828      -0.31375703       0.65969908
H        0.54373026      -0.16227624      -0.26899099
H       -0.19460934      -0.57794893       0.58145517
H        0.03355378      -0.77217627       0.29297233
H       -0.23281991      -0.25579304       0.47421271
