21
Properties=species:S:1:pos:R:3 pbc="F F F"
H        0.00000000       0.00000000       0.00000000
H       -0.04850490       0.68549418       0.68978679
H       -0.36234447       0.46966103      -0.77213073
H       -0.38610309       1.24102950      -0.09555840
H       -0.18291225       0.23510647      -0.08306111
H        0.03832795      -0.43649340       0.80842400
H        0.62828332      -1.37857699       0.40003011
H        0.50493014      -1.44805813       0.40671065
H        0.58702803      -1.40291107       0.39937717
H        0.59778112      -1.42608070       0.47663593
H        0.63870788      -1.42608070       0.55819392
H        0.54584342      -1.42608070       0.40160805
H        0.58140308      -1.46881652       0.60413831
H        0.59818316      -1.37857699       0.35965341
H        0.62335694      -1.35310769       0.33947453
H        0.65335715      -1.29888785       0.27892488
H        0.59818316      -1.37857699       0.35965341
H        0.62335694      -1.35310769       0.33947453
H        0.66940761      -1.35310769       0.40356478
H        0.19872591       0.74712795       1.84626102
H       -0.15118569      -0.59770429      -0.46130264
