21
Properties=species:S:1:pos:R:3 pbc="F F F"
H        0.00000000       0.00000000       0.00000000
H        0.41703188       0.87984765      -0.00365971
H        0.64646769       0.08895500      -0.79214299
H        0.60411149       0.69681674      -0.45035508
H        0.45493385       0.84261566      -0.20616406
H       -0.20447229      -0.80863994       0.24175939
H        0.17055227       0.02892202      -0.21777335
H       -0.45097601      -1.27044749       0.41887927
H       -0.46384305      -1.25963497       0.42812464
H       -1.14364719      -1.96968484       0.10060284
H       -0.04202929      -0.98759884       0.73873794
H       -0.71111071      -2.24107623       1.21949196
H       -0.71111071      -2.24107623       1.21949196
H       -0.71111071      -2.24107623       1.21949196
H       -0.71111071      -2.24107623       1.21949196
H       -0.71111071      -2.24107623       1.21949196
H       -0.71111071      -2.24107623       1.21949196
H       -0.71111071      -2.24107623       1.21949196
H       -0.71111071      -2.24107623       1.21949196
H       -0.71111071      -2.24107623       1.21949196
H       -0.71111071      -2.24107623       1.21949196
