21
Properties=species:S:1:pos:R:3 pbc="F F F"
H        0.00000000       0.00000000       0.00000000
H        0.13252793       0.60990006       0.74734145
H       -0.16489175       0.95566529       0.33591428
H       -0.04021786       0.16126627      -0.30182430
H       -0.12926303       1.72703385      -0.34013692
H        0.28526944       0.94225228      -0.21158296
H        0.25256532       2.89368892      -0.18880530
H       -0.39621556       3.47687960       0.24366756
H       -0.55069530       3.47950983       0.06596948
H       -0.02771345       3.17689371       0.19413151
H        0.05944011       2.93930006      -0.18335752
H        0.11331931       2.89368892      -0.00870374
H        0.16344582       2.90723896      -0.11382833
H        0.09798366       2.93005848      -0.16444056
H       -0.20414554       3.47637010       0.55355555
H        0.09798366       2.93005848      -0.16444056
H       -0.18595949       3.44787335       0.58339775
H       -0.18595949       3.44787335       0.58339775
H        0.15532334       2.90723896      -0.10369529
H        0.32027739       2.82561994       0.00742638
H       -0.22144145       3.46229362       0.55609328
