5
Properties=species:S:1:pos:R:3 pbc="F F F"
H        0.00000000       0.00000000       0.00000000
H       -0.29363519      -0.58319080       0.72230726
H        0.03575240       0.12438690       1.01812255
H       -0.78490067      -0.11800810       0.56397331
H       -0.56197047       0.35891289       0.41610369
