21
Properties=species:S:1:pos:R:3 pbc="F F F"
H        0.00000000       0.00000000       0.00000000
H        0.58115071      -0.52769721      -0.57607329
H        0.89701837      -1.34135795      -0.14451256
H        0.64748162      -0.92660838       0.36721563
H        1.28503442      -0.72054493      -0.26476699
H        0.54231876      -0.44427392       0.59736824
H        0.59331453      -0.49569461       0.39549938
H       -0.21321006      -0.46317178      -0.41573891
H        0.36668152       0.77336067       0.81842053
H        0.05820334       1.15181494       1.66084242
H        0.33773366       0.77336067       0.83078480
H        0.33773366       0.77336067       0.83078480
H        0.08045423       0.45367014       0.39317775
H       -0.60743809       0.46691531       0.72338772
H       -0.85355347       0.54718697       0.92516601
H       -0.87164783       0.54718697       0.89206004
H       -0.86819929       0.58443588       0.89025319
H       -2.05415463       0.08078870       0.81236798
H       -2.05415463       0.08078870       0.81236798
H       -2.05415463       0.08078870       0.81236798
H       -2.05415463       0.08078870       0.81236798
