21
Properties=species:S:1:pos:R:3 pbc="F F F"
H        0.00000000       0.00000000       0.00000000
H       -0.92830116      -0.43148959      -0.07346868
H       -0.27283424      -0.70907992       0.60895658
H       -0.83147174      -0.74679810       0.84264570
H       -0.60064632       0.33235219       0.76294822
H       -0.40507472       0.11804628       0.97788852
H       -1.63532782       0.33679563       0.36279058
H       -1.81406736       0.61994225      -0.55150753
H       -0.80014414       0.00444344      -0.13252157
H       -0.93065149       0.21058029      -0.55926007
H       -1.43041158       0.49555534       0.39224029
H       -2.14688897       0.81428361      -0.23297781
H       -0.77912277       0.24258471       0.57486749
H        0.62350136       0.64844042       0.19775955
H        0.63005757       0.64844042       0.17575629
H        0.54761636      -0.25253618      -0.62489748
H        0.51949054      -0.28122109      -0.63655275
H        0.26111794       0.42775339       0.23290804
H       -1.30323148      -0.38035849       1.80370545
H       -1.30323148      -0.38035849       1.80370545
H       -1.30323148      -0.38035849       1.80370545
