21
Properties=species:S:1:pos:R:3 pbc="F F F"
H        0.00000000       0.00000000       0.00000000
H       -0.67230010      -0.60990006       0.35227177
H       -0.54358566       0.39602298       0.19455275
H        0.24164039      -0.14635196       0.40848383
H       -1.38178837       0.20102584       0.29612064
H       -0.52820021       0.18595377       0.13701330
H       -1.32600307      -0.32235396       0.69081938
H       -1.41500795       0.87177706      -0.33421820
H       -0.35677993       0.58048856      -0.60949141
H       -0.38489473       1.70689821      -0.71380681
H       -0.39214274       1.70689821      -0.71157771
H       -0.39214274       1.70689821      -0.71157771
H       -0.41270310       1.70689821      -0.70192915
H       -0.41270310       1.70689821      -0.70192915
H       -0.38489473       1.70689821      -0.71380681
H       -0.39214274       1.70689821      -0.71157771
H       -0.39570361       1.70689821      -0.71027380
H       -0.40267718       1.70689821      -0.70729524
H       -0.41923767       1.70247614      -0.74258447
H       -0.37001958       1.70689821      -0.71671480
H       -0.40267718       1.70689821      -0.70729524
