21
Properties=species:S:1:pos:R:3 pbc="F F F"
H        0.00000000       0.00000000       0.00000000
H       -0.51304650      -0.77136850      -0.44169885
H       -0.22822902      -1.58502936       0.01095557
H        0.20848927      -0.79929221       0.60763103
H       -0.35642001      -0.85764241      -0.43673590
H        0.09014198      -0.54211009       1.28190553
H        0.09014198      -0.54211009       1.28190553
H        0.09407692      -0.23008999       0.66562432
H       -0.86487424      -0.73686868       0.96044481
H        0.17709853      -0.58638334       1.25302887
H       -0.04403451       0.49344185       1.97230959
H       -0.04403451       0.49344185       1.97230959
H       -0.04403451       0.49344185       1.97230959
H       -0.04403451       0.49344185       1.97230959
H       -0.04403451       0.49344185       1.97230959
H       -0.04403451       0.49344185       1.97230959
H       -0.04403451       0.49344185       1.97230959
H       -0.04403451       0.49344185       1.97230959
H       -0.04403451       0.49344185       1.97230959
H       -0.04403451       0.49344185       1.97230959
H       -0.04403451       0.49344185       1.97230959
