21
Properties=species:S:1:pos:R:3 pbc="F F F"
H        0.00000000       0.00000000       0.00000000
H       -0.02481474      -0.91159266      -0.47085762
H        0.75552040      -0.67024595       0.18243660
H       -0.70163471      -0.82719946       0.22401899
H       -0.29055905      -0.54574060       0.45047629
H       -0.33687216      -0.37895745       0.13447478
H        0.05215347      -0.28563219       0.90456843
H       -0.32846528      -0.37895745       0.32595247
H       -1.23572111      -0.26006824       0.60777521
H       -1.05670500      -0.15501559       0.64383918
H       -0.57330561       0.48040998       0.94768274
H       -0.85769951      -1.30895030       0.00274639
H       -0.24700898       0.48040998       0.80149025
H        0.20364410       0.33384538       0.51115155
H       -0.45015484      -1.16667438      -0.04340333
H       -0.89569926       0.69046211       0.97183675
H        0.42453423      -0.54153705      -0.16953237
H        0.78742069      -0.21500695      -0.27765960
H        0.04010886      -1.70819211      -0.31413960
H        0.14531335      -1.74456155      -0.10210857
H        0.10522333      -1.64012313       0.30049670
