8
Properties=species:S:1:pos:R:3 pbc="F F F"
H        0.00000000       0.00000000       0.00000000
H        0.12256700       0.83228827       0.37498182
H       -0.19768734       0.39891118       0.92472351
H        0.58716393       0.33235219      -0.77337211
H        0.67985320       0.86245930       0.66324770
H        0.98954993       0.74789506      -0.06008062
H        0.58716393       0.43722221      -0.23078203
H        0.61772829       0.13471931       0.36025572
