21
Properties=species:S:1:pos:R:3 pbc="F F F"
H        0.00000000       0.00000000       0.00000000
H        0.63772744       0.77136850       0.22719663
H       -0.51239800       0.85764241      -0.23499312
H        0.19093245       0.87454140       0.43813509
H       -0.01606987       0.46354809      -0.91552651
H        0.41431645       1.20536220      -0.77901840
H        0.76848900       0.57472348      -2.09311771
H        0.47136256       1.55404258      -2.17040825
H        0.12955880       1.23580611      -2.41374040
H       -0.56307459       1.50381398      -0.68437719
H        0.43728423       1.45039809      -0.90743089
H        0.36526448       0.23755181      -2.44916654
H        0.62493587       1.49391639      -0.50155902
H       -0.73276699       1.36898112      -0.00771469
H        0.69909346       1.10239625      -2.15140271
H       -0.70660877       1.32091188      -0.01296651
H       -1.53158426       1.52984762       0.46074772
H        0.10784709       2.48340416       0.23228347
H        0.10784709       2.48340416       0.23228347
H        0.10784709       2.48340416       0.23228347
H        0.10784709       2.48340416       0.23228347
