21
Properties=species:S:1:pos:R:3 pbc="F F F"
H        0.00000000       0.00000000       0.00000000
H        0.88292891      -0.28314662      -0.29719594
H        0.91829234      -0.47790521       0.70985043
H        0.22156565      -0.55577880       0.76816630
H        1.16875100      -0.53796637       0.37339249
H       -0.75999737      -0.49897972      -0.34854576
H       -0.55677408      -1.14742017       0.27319619
H       -0.24727494      -0.78231359      -0.45141581
H        0.33396745      -0.93268633      -0.39083681
H        0.37484974      -1.09400427      -0.15405989
H       -0.20383352      -1.91570544      -0.47889534
H        0.73635077      -2.74186325       0.24801061
H        1.20430958      -3.17335272       1.05309141
H        0.87655693      -3.52044320       0.20446467
H        0.47540176      -3.02187204       0.42555028
H        1.65155971      -4.14831924       0.93674976
H        2.40251970      -4.27833033       2.22870803
H        2.17934179      -3.61361217       2.23503113
H        1.26652861      -3.15006399       2.16278815
H        2.51503515      -3.81273031       2.11649132
H        2.29025745      -3.76219273       2.23789191
