21
Properties=species:S:1:pos:R:3 pbc="F F F"
H        0.00000000       0.00000000       0.00000000
H       -0.33100656      -0.58582085      -0.77496612
H        0.03407410       0.05704671      -1.48683786
H       -0.92183006       0.42289880      -1.56249118
H       -0.73216832       1.00608957      -0.80619901
H       -1.24579287      -0.12227276      -0.81513005
H        0.33018982       0.67024595      -0.70361131
H        0.20904773       0.60717839      -0.71506071
H       -0.73216832       0.76139289       0.45984441
H       -0.73216832       0.76139289       0.45984441
H       -0.73216832       0.76139289       0.45984441
H       -0.73216832       0.76139289       0.45984441
H       -0.73216832       0.76139289       0.45984441
H       -0.73216832       0.76139289       0.45984441
H       -0.73216832       0.76139289       0.45984441
H       -0.73216832       0.76139289       0.45984441
H       -0.73216832       0.76139289       0.45984441
H       -0.73216832       0.76139289       0.45984441
H       -0.73216832       0.76139289       0.45984441
H       -0.73216832       0.76139289       0.45984441
H       -0.73216832       0.76139289       0.45984441
