8
Properties=species:S:1:pos:R:3 pbc="F F F"
H        0.00000000       0.00000000       0.00000000
H        0.12529835      -0.08895500      -1.01474690
H        0.43173385       0.89036417      -0.99589956
H        0.32232794       0.91843063      -0.02551007
H       -0.64563084       1.18262243      -0.24133961
H       -0.46258193       1.23745465      -1.16259825
H       -0.92494023       0.25064358      -0.17240709
H       -0.80118006       0.26937920      -1.20139408
