21
Properties=species:S:1:pos:R:3 pbc="F F F"
H        0.00000000       0.00000000       0.00000000
H        0.05739931      -0.52769721       0.81627315
H        0.36690205       0.83756196       0.46604359
H        0.27557820       0.34899217       1.30324090
H       -0.64619380       0.59963572       1.49185419
H       -1.00460827      -0.21683669       0.98368520
H       -0.99164724       0.22961354       0.13129057
H       -0.92902946      -0.29808366       0.98228443
H       -0.56894076       1.05540049       0.62354147
H       -0.00183111      -1.37886286       0.97802532
H        0.28426248      -1.69261992       1.96990943
H       -0.66606659      -1.60822666       2.16436601
H        1.04982829      -1.43501806       0.74353296
H       -0.89537841      -1.44855773       1.17682064
H        0.29313624      -0.72718877       2.09610295
H        1.05634916      -0.46578181       0.83626664
H        0.09980343      -0.53243017       1.10715628
H        0.60334182      -1.53582871       2.15957737
H       -0.84676874      -0.37453926       1.26764309
H        0.24458283      -1.26479471       2.36990190
H       -0.64204764      -1.74518394       0.52088898
