9
Properties=species:S:1:pos:R:3 pbc="F F F"
H        0.00000000       0.00000000       0.00000000
H        0.54069358       0.79439902       0.36042264
H       -0.29010814       1.35062027       0.59217727
H       -0.35392085       1.00352979       1.49965572
H        0.50750756       0.39548784       1.30545843
H       -0.85505903       0.55622131       0.11320678
H       -0.01138026      -0.35817283       0.97257423
H       -0.94935632       0.17776710       1.00536215
H       -0.86521554       0.18705738       1.14571440
