8
Properties=species:S:1:pos:R:3 pbc="F F F"
H        0.00000000       0.00000000       0.00000000
H        0.88292891      -0.28314662      -0.29719594
H        0.88292891      -0.83936793       0.56532466
H       -0.35793361      -0.68549418      -0.59164357
H       -0.35793361      -1.18447387       0.24446654
H       -0.01441723      -0.55622131       0.81564200
H        0.54768550      -1.49978232       0.07566071
H        0.56136942      -0.91659153      -0.70393032
