8
Properties=species:S:1:pos:R:3 pbc="F F F"
H        0.00000000       0.00000000       0.00000000
H       -0.47549847       0.19475858       0.88842231
H        0.59898126       0.81647241       0.16708747
H       -0.63862538       0.58582085      -0.54981393
H       -1.06772101       0.80465865       0.41370630
H        0.15041587       0.98915762       1.06302285
H        0.01938713       1.42095828      -0.36625952
H       -0.44180667       1.59905767       0.58830678
