8
Properties=species:S:1:pos:R:3 pbc="F F F"
H        0.00000000       0.00000000       0.00000000
H        0.38154608      -0.49897972      -0.74397767
H       -0.12231959      -0.89468008       0.48775959
H        0.78272688      -0.91157907       0.84646040
H        1.03470790      -0.07401711       0.30950665
H        1.07753897      -1.43927622       0.08312398
H        0.22426280      -1.33071077      -0.26278499
H        1.28347719      -0.63635820      -0.31843540
