18
Properties=species:S:1:pos:R:3 pbc="F F F"
H        0.00000000       0.00000000       0.00000000
H       -0.49101692      -0.19475858      -0.87994057
H        0.07288510       0.55264992      -1.30032015
H       -0.63350451       0.68549418       0.27718329
H       -0.03421760       1.40804207      -0.13767034
H       -1.12422180       0.46632403      -0.54815400
H       -0.66797727       1.22289586      -1.06533659
H       -0.49405101       1.21328354      -1.03430080
H       -0.06833662       0.12445891      -0.01937988
H        0.88001013       1.29641283      -0.14569326
H        1.37571955       1.94485331      -0.57246596
H        0.45538878       2.26016188      -0.61287338
H        1.31149685       1.98866665      -0.57341015
H        1.39173198       1.45242953      -0.58821726
H        0.96387851       1.93213391      -0.59948367
H        0.26610819       0.98819757      -0.70785660
H        0.26610819       0.98819757      -0.70785660
H        0.26289141       0.98819757      -0.70115542
