21
Properties=species:S:1:pos:R:3 pbc="F F F"
H        0.00000000       0.00000000       0.00000000
H        0.21426670       0.05341591       1.00227761
H       -0.73158455       0.35186774       1.26612568
H       -0.52472371       1.28096545       1.06107211
H       -0.92973900       0.21783850       0.19024351
H        0.42571127       1.01677358       0.77787638
H       -1.01672816       0.26747453       0.33896238
H       -0.04454488      -0.19428839      -0.84523535
H       -0.30866733      -1.27405059      -1.05695164
H        0.53139496      -0.74809903      -0.79050422
H       -0.45123690      -1.39843750      -0.04822683
H        0.08700114       0.70592487      -1.51812661
H       -1.06617951      -0.58196509      -0.14065176
H        0.13717675      -0.66662627       0.20922747
H       -0.10669610       1.66159010      -1.83829689
H        0.17594066       2.00868058      -0.97359717
H        0.84007394       1.74598336      -2.04940176
H        1.05252123       0.83031178      -1.84312296
H        1.12271070       2.09307384      -1.18470204
H        1.29137981       1.12876356      -0.89065415
H        0.23325217       1.01312411       0.61154866
