21
Properties=species:S:1:pos:R:3 pbc="F F F"
H        0.00000000       0.00000000       0.00000000
H        0.50421435      -0.31530851      -0.77097952
H        0.62283462      -1.30572534      -0.35972396
H        0.74434412       0.25064358       0.57549155
H        0.03147990      -1.12095439       0.39142194
H       -0.04031531      -0.16528910       0.02417120
H        0.50448668      -1.21511817       0.75712836
H        0.50448668      -1.21511817       0.75712836
H       -0.21976447      -1.27127337       1.55489659
H       -0.00989886      -0.28189057       1.72925830
H        0.63173145      -0.26499158       0.99707943
H       -0.75037348      -0.06405208       1.13570583
H       -0.13705796       0.02034114       0.38418549
H       -1.36738074      -0.36067834       0.79847467
H       -1.36738074      -0.36067834       0.79847467
H       -1.78555727      -0.14283985       1.65037584
H       -0.96528351       0.18548897       1.91054678
H       -1.71430647      -0.04536983       1.65187025
H        0.06759185      -1.02798510       0.52271199
H        0.99687409      -1.64625132       1.75965083
H        0.99687409      -1.64625132       1.75965083
