8
Properties=species:S:1:pos:R:3 pbc="F F F"
H        0.00000000       0.00000000       0.00000000
H        0.07742673      -0.40936196      -0.88005048
H        0.51269805       0.88051391      -0.35491288
H       -0.82688284       0.40936196      -0.31104404
H        0.58883297       0.44073746      -1.22028041
H       -0.23448700       0.88051391      -1.49741197
H       -0.79039693       0.05418614      -1.17216206
H       -0.33396643       1.28987586      -0.60718846
