9
Properties=species:S:1:pos:R:3 pbc="F F F"
H        0.00000000       0.00000000       0.00000000
H        0.30968034       0.89379078      -0.23086154
H       -0.24994391       0.98274577      -1.08656693
H       -0.56165361      -0.01781246      -0.85880834
H        0.76228261      -0.43977645      -0.41663268
H        0.31802368      -0.42287746      -1.28289437
H        0.70278025       0.44196692      -1.51107728
H        1.18700552       0.45977938      -0.60634941
H        0.55099946       0.55125618      -1.56157255
