21
Properties=species:S:1:pos:R:3 pbc="F F F"
H        0.00000000       0.00000000       0.00000000
H        0.79402828      -0.31375703       0.65969908
H        1.04645801      -0.22936383      -0.27690005
H        0.62493950      -0.83970857      -0.20523322
H        1.33589458       0.05378279       0.60860282
H        1.73896503       0.03597033      -0.33508193
H        1.45133901      -0.17046440       1.28878379
H        1.76480877      -0.98998308      -0.34378102
H        1.04147923      -0.96409547       0.72446913
H        1.24726796      -1.20000505       1.03872716
H        2.25436449      -0.80159163      -0.04152265
H        0.26241028       0.01872592       1.04638302
H        1.98211956       0.22176865       0.72435462
H        0.26241028      -1.16007483       1.15944576
H       -0.12900528      -1.09828424       1.08428395
H        1.65350401      -1.48708582       0.30071297
H        1.45747805      -1.27948499      -0.45330000
H        1.28067291       0.07214183       0.92971283
H        0.82394964      -1.01359725       0.90031171
H        2.96526933       0.48596051       0.85452020
H        0.94551057       0.98514360       1.08839726
