21
Properties=species:S:1:pos:R:3 pbc="F F F"
H        0.00000000       0.00000000       0.00000000
H        0.87747955       0.49504808      -0.19565487
H        0.63276416      -0.29935095       0.40631562
H        0.05848157      -0.70907992      -0.66471535
H        1.55506957      -0.22749981       0.07289717
H        1.56829357      -0.92431653      -0.68049216
H        1.00188255      -1.38786459       0.03896993
H        1.40423465       0.13835227      -0.87405849
H        1.85514474      -1.08941281       0.52496773
H        0.24825186      -0.74499702       0.30745807
H        0.85388243      -1.13722098      -0.89018810
H        0.42858794       0.17973956      -1.00010371
H        0.83461976      -1.17836785       0.58773512
H        0.94508249      -0.57722604      -1.34321153
H        0.21962939      -0.33235219      -0.94584823
H        2.10134029      -0.14730912       0.20069584
H        1.35677946      -0.53553277       0.85717463
H        1.46203458       0.25606629      -0.64135361
H        1.89461207      -0.09115393      -0.85677159
H        0.55395746      -0.46403441      -0.27847603
H        1.73007286      -0.90689945      -0.26024455
