21
Properties=species:S:1:pos:R:3 pbc="F F F"
H        0.00000000       0.00000000       0.00000000
H       -0.92501378       0.29845181       0.32954502
H       -0.50500441      -0.81647241       0.36285993
H        0.11118901      -0.34681138       0.95259285
H       -0.29073769      -0.86988831       1.36513758
H       -0.18491775       0.56264365       0.98968470
H       -1.64377391      -0.42409608       0.45050892
H       -1.25159109      -0.18700081       1.24945593
H       -1.10244465      -0.28406745       1.59156561
H       -1.10173535       0.41116285       1.28047693
H       -1.20874548      -0.31749269      -0.08861396
H        0.48422527       0.01781246       0.90472788
H       -1.26249421      -1.07709432       0.67574430
H       -0.82778978      -0.76178581       1.48794723
H       -0.55739045       0.30785570       0.09308332
H       -0.00363949      -0.84053040       1.33988631
H       -0.61417806      -1.32963049       0.15606493
H        0.03781489       0.09909555       1.87784982
H       -1.18388200      -1.48929942       0.99467516
H       -0.85126066      -1.12285984       2.01229787
H       -0.87343895       0.28386652       2.16687751
