21
Properties=species:S:1:pos:R:3 pbc="F F F"
H        0.00000000       0.00000000       0.00000000
H        0.21426670       0.05341591       1.00227761
H       -0.76572841       0.28302944       1.20280457
H       -0.11445503       0.94720668       1.20511007
H       -0.67787278      -0.52595156       0.56319398
H        0.63212353       0.51571709       0.64854813
H       -0.43028527      -0.19722767       0.31686437
H        0.05275059       1.22863936       0.58216476
H       -0.78817987       0.97799575       0.16017595
H       -1.13213515       1.20760930       1.09948218
H       -0.88043654      -0.03438389       0.01910895
H        0.11540224       0.56755674      -0.12994862
H       -1.40280497       0.37004733       0.57170230
H       -0.99038917      -0.50980031       0.50971687
H       -0.47838211       1.39012265       0.64692461
H       -0.41692257       0.72416711       0.99673867
H        0.14739671      -0.31799203      -0.03870964
H        0.19997290      -0.40089720       0.03583419
H        0.81702811       0.37219375      -0.51229882
H        0.81814879       0.45408335      -0.51933467
H        0.87075442       1.19743288       1.02779913
