21
Properties=species:S:1:pos:R:3 pbc="F F F"
H        0.00000000       0.00000000       0.00000000
H        0.75986940       0.40936196      -0.45064643
H        0.31365058       0.80827314       0.38306972
H       -0.43738702       0.22508234       0.59257388
H        0.22057861      -0.38524818      -0.61133569
H       -0.60287178      -0.33113897      -0.25392276
H        0.19929355       0.93705916      -1.04675984
H       -0.75666159       0.75228822      -1.05514872
H       -0.24174628       1.39409399      -0.25070634
H       -0.00602466       0.93705916      -0.73874867
H       -0.87572575       0.40067226      -0.83535552
H       -1.07531631       0.65657192      -0.08579683
H       -0.34228367      -0.10402709      -1.20988047
H        0.34390083       1.41373336      -1.21874690
H       -0.39508191       1.39146399       0.05803478
H        0.26023424       0.31156856      -1.36379683
H       -0.24462074       0.47180095       0.38734749
H       -0.45196781       1.39318049      -0.34209138
H       -0.83044875       1.27021003      -1.27030706
H       -0.83580768       1.51637375      -1.22909939
H       -0.83501828       1.47536707      -1.31205022
