21
Properties=species:S:1:pos:R:3 pbc="F F F"
H        0.00000000       0.00000000       0.00000000
H        0.11786898      -0.15148079      -0.95457917
H        0.20290539      -0.58319080      -0.75284714
H        0.01107827      -0.66302222       0.14446390
H       -0.48736334       0.13158792       0.40563726
H       -0.98733580      -0.89263576       0.20587134
H       -0.66304493       0.59513605      -0.49301893
H       -0.72004771      -0.98210198      -0.95864159
H       -0.95387107      -0.04383665       0.68177170
H       -0.19886813       0.52435434      -0.17544389
H       -1.48803306      -0.45285931      -0.50402981
H       -0.90163881      -0.10322577      -1.16585934
H       -1.35550702       0.04825503      -0.31785107
H       -0.51092881      -1.21171546       0.01955611
H       -1.17991710      -0.18866745       0.43862128
H       -1.12583482      -0.60484827      -0.79035574
H       -0.14887977      -1.26988935      -0.85976708
H       -0.91772699      -0.01711708       0.16892146
H       -0.44538304      -0.16514960      -0.82822323
H       -0.60817581      -0.03291476      -0.03811700
H       -0.74408269      -2.00964594       0.51485449
