21
Properties=species:S:1:pos:R:3 pbc="F F F"
H        0.00000000       0.00000000       0.00000000
H       -0.37664786      -0.36585209      -0.88182342
H       -0.33879325       0.55622131      -0.79319662
H       -1.26565361       0.60689795      -0.49921903
H       -0.72368902      -0.25064358       0.60125935
H       -0.14385372      -0.61649567      -0.16245991
H       -1.44954753      -0.20676285       0.00297621
H       -0.94914252       0.73128486       0.46911588
H       -1.07820165      -0.70088887       0.09817919
H       -1.15195203      -0.29472613      -1.08083165
H       -0.90723681      -1.08912516      -0.47886115
H       -0.47405156       0.67422938       0.16379875
H       -1.11407387       0.08656028      -1.14875150
H       -1.39868200      -0.32477096      -0.96219099
H       -1.63844943      -0.14796543      -0.63974047
H       -0.67861158       0.35094881      -0.27103552
H       -0.27539444      -0.49614269      -0.59298420
H       -0.99268246       0.06270671      -0.21744853
H       -1.07429814      -2.20613527      -0.83485717
H       -1.07429814      -2.20613527      -0.83485717
H       -1.07429814      -2.20613527      -0.83485717
