21
Properties=species:S:1:pos:R:3 pbc="F F F"
H        0.00000000       0.00000000       0.00000000
H       -0.30729049       0.46966103      -0.79564559
H       -0.59957939      -0.19142160      -0.14326692
H       -1.21352267       0.14093059      -0.89555657
H       -1.03613329       0.24835485       0.60778445
H       -0.43796340       1.38125372      -0.34260336
H       -0.54029244       1.36435473       0.62554133
H       -1.39455962       1.38125372       0.15863353
H       -0.89961904      -0.29845181       0.39361894
H       -1.39455962       0.63384521       0.86198586
H       -0.22651178       0.43148959       0.90323478
H       -1.17278242       0.68813133      -0.25011098
H        0.19827962       1.04904628       0.07494813
H       -0.15691286       0.60926986       0.86772543
H       -1.39761114       0.64210927       0.57103342
H       -1.80289531       0.90053225      -0.40589082
H       -1.86371231       0.75564516      -0.39286059
H       -0.96797824       0.73945987       0.49973825
H       -0.10691336       0.19856298       0.75612831
H       -0.32660985       0.30163777       0.54313135
H       -0.36605471       0.15900570       0.61504894
