21
Properties=species:S:1:pos:R:3 pbc="F F F"
H        0.00000000       0.00000000       0.00000000
H       -0.58002573       0.67024595       0.51736289
H        0.17546839       1.13990700       0.91322649
H       -0.00671726       0.20058492       1.14886642
H       -0.23948710       0.92909771      -0.16578385
H        0.96156460       0.05067664      -0.14452161
H        0.17531657       0.24543521      -0.77476525
H        1.06187701       0.74048328      -0.62556154
H        1.03637791       1.09196961       0.58938277
H        0.46257699       1.65164566       0.03005886
H        1.10951185       0.17353898       0.27442643
H        1.22176015       1.20403135       0.27603948
H        0.57360035       1.27618814      -0.57380092
H        0.01315996       1.35452998      -0.61957192
H        0.74610937       0.08439321       0.61988676
H        0.38370255       1.13334286      -0.64618409
H       -0.06842133       1.68387198       0.28174007
H        1.07357335       0.46552363       0.74249935
H        0.28610656       0.39249849       0.21863043
H       -0.07742818      -0.24368900       0.34515101
H        0.11225188       0.52319157       0.43184799
