21
Properties=species:S:1:pos:R:3 pbc="F F F"
H        0.00000000       0.00000000       0.00000000
H       -0.72715116       0.63587439       0.12237607
H       -1.19643652      -0.17778641      -0.13411628
H       -0.29971564       0.46354809      -0.86522686
H       -1.13083434      -1.05763412      -0.54597223
H        0.25242975      -0.08439321      -0.93659914
H       -0.37998757      -0.79347312      -1.14947236
H       -1.24079084       0.16509628      -1.14563346
H       -0.12683582      -0.88977700      -0.18828791
H       -0.82656372      -0.54268652       0.39306390
H       -1.09078860      -0.94045365      -0.06066398
H       -0.36236742      -0.19753453      -1.57734025
H       -1.26220727       0.29487544      -0.00946370
H       -1.15687466      -0.72348607      -1.19595182
H       -1.93777394      -0.51266599      -0.56656206
H       -1.64483333       0.36320996       0.08727127
H       -1.24894333       0.65830666      -0.52705550
H       -0.07946524      -0.61034477      -0.12017733
H       -1.76432693      -0.01697138       0.12507224
H       -0.27654362      -0.17927119      -0.55066061
H       -1.84506440      -0.35504687      -0.80145383
