21
Properties=species:S:1:pos:R:3 pbc="F F F"
H        0.00000000       0.00000000       0.00000000
H        0.83968246      -0.37845421      -0.31585881
H        0.36660659      -0.95566529       0.07501514
H       -0.24251869      -0.83756196       0.54129332
H        0.91529840      -1.36783695      -0.05369893
H        1.34381127       0.00000000       0.42622444
H        0.48991331      -0.67789304       1.24227333
H        0.08629736       0.20195460       1.13728213
H        0.36568490      -1.63196099       0.31250864
H        1.42131710      -0.63587439       1.15951669
H        1.16114533      -1.44719005       0.84275705
H        0.60331184      -0.10817719       1.18105662
H        0.51167667      -1.13298130       1.13577437
H        0.89143234       0.36585209       0.35330510
H        0.06888028       0.29845181       0.97954369
H        1.44186771      -0.64528906       0.45025852
H       -0.33486277      -0.24432528       0.61801517
H       -0.01049334      -1.23474205       0.33875474
H       -0.43059546       0.92841911       0.52833688
H        1.47563529       0.25099447       0.24441068
H       -0.03016478      -1.18488646       0.18600681
