21
Properties=species:S:1:pos:R:3 pbc="F F F"
H        0.00000000       0.00000000       0.00000000
H        0.58115071      -0.52769721      -0.57607329
H        0.92651236      -1.34135795      -0.16773224
H        1.39030695      -0.95918679      -0.11519718
H        1.08248842      -0.12689853      -0.36193952
H        0.88586992       0.23709527       0.08577912
H        1.22533870      -1.18987715       0.74649817
H        0.61492014       0.52595156       0.63132566
H        1.66963196      -0.54626667       0.44025752
H        1.27200341      -0.19659632       0.94674611
H        0.59417725      -1.22334981       0.73984051
H        0.22274369      -0.82443863      -0.12977487
H        0.99735391      -0.49061811       1.12570405
H       -0.08234757      -0.22145694       0.72364146
H        0.84163445      -0.27487284       1.16718173
H        0.59286737       0.47668785       1.79674625
H        0.59286737       0.47668785       1.79674625
H        0.21523738      -1.11701012      -0.32911322
H        0.79627925       0.18840998       0.51368928
H        0.41173932       1.04789710       2.81815052
H        0.41173932       1.04789710       2.81815052
