21
Properties=species:S:1:pos:R:3 pbc="F F F"
H        0.00000000       0.00000000       0.00000000
H        0.35866648      -0.83756196      -0.47241095
H       -0.11448953      -1.16991413      -1.32034338
H       -0.76102257      -0.58319080      -0.16968817
H        0.47317204      -0.00583094      -0.96553659
H       -0.23927984       0.07856227      -1.62383068
H       -0.66155756      -1.15301514      -0.51505345
H       -1.15056825      -0.84738266      -1.08170819
H       -0.95171058       0.04848665      -1.00289416
H       -0.27887639       0.49917299      -0.72207487
H        0.34126174      -0.57337010      -1.46398723
H       -0.90927625       0.28314662      -0.20274489
H       -0.83239591      -0.75899971      -1.62903559
H       -0.63128215      -0.59118253      -1.79134786
H       -0.16154408      -0.14145041      -0.15577954
H       -0.87853658      -0.05032444      -0.14176071
H        0.75900495      -0.05650758      -1.89494085
H       -0.62881225      -0.28620905      -0.47345993
H        0.43952015       0.36002114      -0.00723410
H        0.22078779      -0.42389503      -1.61901736
H        0.59898692       0.48921713      -0.07535583
