21
Properties=species:S:1:pos:R:3 pbc="F F F"
H        0.00000000       0.00000000       0.00000000
H       -0.47549847       0.19475858       0.88842231
H        0.37457919       0.74740851       0.59531075
H        0.81929570       0.61471456      -0.06484170
H        0.47889370      -0.79461014       0.29549348
H        0.19193259       0.80947316       1.36799049
H        1.21303737       0.55264992       1.15422118
H        0.68780160      -0.40290195      -0.04271187
H        1.37191021      -0.40781295       1.13601792
H        0.88225198       0.11265641       1.67003262
H        1.29027617       0.02669835       0.27630717
H        0.53056514      -0.76403296       1.26871479
H       -0.18257147      -0.29563043       0.80690718
H       -0.10410744      -0.14619213       1.59687471
H        0.82688552      -0.80672413       0.36326832
H        1.02458096       0.91316640       0.89542305
H        0.26732171      -0.54451096       0.44846553
H        1.21388245       1.19482875       0.09745097
H        1.72477627       0.86576647       1.05200648
H        1.69987154       0.94166505       1.08749819
H        1.41790402       1.15668201      -0.05415079
