17
Properties=species:S:1:pos:R:3 pbc="F F F"
H        0.00000000       0.00000000       0.00000000
H       -0.43620220       0.58582085      -0.72101700
H       -0.51866156       0.33517727      -1.65826786
H       -1.28632283      -0.07418469      -1.22102654
H       -0.97007835       0.33235219      -0.04259157
H       -0.57463354      -0.74176359      -1.62373126
H       -1.40882111      -0.54433715      -0.34630924
H        0.25029179      -0.16158766      -0.87408710
H       -1.34969997      -0.93652219      -0.97978634
H       -0.40886497      -1.18716574      -0.98804277
H        0.19003798      -0.86484438      -0.40495753
H       -0.67217112      -0.68549418       0.16231000
H        0.04786563      -0.37069333      -1.41005445
H       -0.72501141      -1.22983134      -0.44908476
H       -1.22250807       0.41674539      -0.97919071
H       -0.10209253       0.38296735      -0.81208372
H        0.17416732      -0.69006103      -1.30913496
