21
Properties=species:S:1:pos:R:3 pbc="F F F"
H        0.00000000       0.00000000       0.00000000
H       -0.26684549      -0.92909771       0.11675546
H        0.69180417      -0.69948417      -0.16888794
H        0.84380150       0.24757773      -0.00146177
H        1.02945387      -0.99793601       0.75319827
H       -0.60362709      -0.12617970       0.41715297
H        0.15844071       0.42959911       0.65886247
H        0.35304451      -0.21326846       1.43486154
H       -0.08890176      -0.24418780       1.23519504
H        0.65623653      -0.52592820       1.45051837
H        0.32654178      -1.19865716       0.51356900
H       -0.33488801      -1.01349092       1.08438611
H        0.26410449      -1.04587340       1.26337481
H        0.95088261       0.12319083       1.01164508
H        1.32210886      -0.56889468       0.39592820
H        0.97009134      -0.91326213       1.47289109
H        1.20393300      -0.69594997       0.87333798
H        0.45089081      -0.59135389       0.30547255
H       -0.09660763      -0.62405229       1.36446953
H       -0.48935512      -1.21322238       0.87282205
H       -1.77740121       0.52754205      -0.12115678
