21
Properties=species:S:1:pos:R:3 pbc="F F F"
H        0.00000000       0.00000000       0.00000000
H        0.05739931      -0.52769721       0.81627315
H        0.72816640       0.72254789      -0.03197031
H        0.05236799       1.01237965       0.16021480
H       -0.25579536       0.48468244       0.91825956
H        0.69262058      -0.28337514       0.16847718
H        0.26238209       0.05812365       1.63365912
H        0.84887224       1.27876925       0.82206237
H        1.27316213       0.37770748       0.58561289
H        1.02909851       0.70099121       1.40520501
H        0.98316407      -0.43692443       1.09632814
H        0.13109004       1.12728846       1.46229911
H        0.24920753       1.11045825       1.27021742
H       -0.79005653       0.44117033       0.76552063
H       -0.87619048       0.55209756       0.73316669
H       -0.96122044       0.70754290       0.69131476
H       -1.00734210       1.15590298       0.66890895
H        0.44165972       0.00081491      -0.31680006
H       -0.97407931       1.39586294       0.60932606
H       -0.96907538       1.35674715       0.65053976
H       -0.49402845       1.68832684       0.96451610
