21
Properties=species:S:1:pos:R:3 pbc="F F F"
H        0.00000000       0.00000000       0.00000000
H        0.80713278      -0.08439321       0.53802919
H        0.82372832      -0.48330438      -0.40744340
H        0.17866249       0.43148959      -0.91390389
H        0.51308644      -0.47516733      -0.79476207
H        1.43822086      -0.39970171      -0.13306642
H        1.34266984       0.18348908      -0.90690070
H        1.60081017       0.40321630      -0.55404764
H        0.19826092       0.97931916       0.23441534
H        1.17897487       1.24351096       0.08701560
H        0.97854674       1.19715762      -0.30573392
H        1.51853085       0.63815469       0.37940615
H        0.81425017       0.81452346       0.82395297
H        0.10263544       0.51903701      -0.85248417
H        1.46163869       0.30937821       0.53380555
H        0.14066052       0.10044295       0.50385308
H        0.60112250       0.27003312      -0.62405431
H       -0.07321252      -0.08804613       0.49423122
H        0.73626935      -0.07251853       0.15355353
H       -0.05789913       0.68105435      -0.59850603
H        0.73001248       0.53504527      -0.37237847
