21
Properties=species:S:1:pos:R:3 pbc="F F F"
H        0.00000000       0.00000000       0.00000000
H        0.85755634      -0.19475858       0.52914101
H       -0.28283444      -0.86484438      -0.34656852
H        0.94522405       0.03485496      -0.46731061
H        0.63558185      -0.68769294      -1.12713647
H        0.06916177      -0.75053740       0.66182405
H        0.24902144      -1.63944650      -0.09126109
H        0.34825364      -1.18015289      -1.01766419
H        1.01474357      -1.14944863       0.65352601
H        1.12695563      -1.61299670      -0.25523990
H        1.39762545      -0.77543473      -0.78301972
H        0.60000312      -1.50136745      -1.00236630
H        1.22763777      -0.75853574       0.17556232
H        0.13896774      -0.40936196      -0.87245154
H        0.24904680      -1.49653912       0.16230550
H        0.76908302      -1.46092892      -1.07127833
H        0.62717521      -1.59950066      -0.87129629
H        1.52465641      -0.38016149      -0.34260443
H        1.52465641      -0.38016149      -0.34260443
H        1.50912201      -0.38016149      -0.33841768
H        0.81470442      -0.20422542       0.07504624
