21
Properties=species:S:1:pos:R:3 pbc="F F F"
H        0.00000000       0.00000000       0.00000000
H       -0.33100656      -0.58582085      -0.77496612
H        0.21779516       0.16158766      -1.21487641
H        0.59306616      -0.73309243      -0.88014787
H        1.01951647       0.06151772      -1.24729311
H       -0.38991091       0.39349830      -1.07627702
H        0.69359845       0.74740851       0.11672918
H        0.43372819       0.88854635      -0.71590233
H        0.96977401      -0.50347888       0.04650879
H        1.57388544       0.19333786      -0.40384629
H        0.03385259       0.89379078      -0.38477650
H       -0.64202726       0.04640782      -0.20219094
H        0.17729044      -0.07198930       0.53549790
H        0.07834095      -0.85110050      -0.06210572
H        1.20327878       0.31591892      -0.66260815
H        0.98316973       0.33686119       0.61242652
H        0.96912932       0.97972876      -0.18747854
H        1.15559137      -0.61442947      -0.28451937
H        0.32384533       0.53216654      -1.02664304
H        0.04019862      -0.20675585       0.66438097
H       -0.00970560      -0.32003179       0.66173166
