21
Properties=species:S:1:pos:R:3 pbc="F F F"
H        0.00000000       0.00000000       0.00000000
H       -0.53245163       0.67024595      -0.56620628
H       -0.95254821      -0.05230194      -1.16182971
H       -0.61281252      -0.29021692      -0.42795265
H        0.41431838       0.75463915      -0.77731109
H        0.80370677      -0.07709187      -0.45379728
H        0.63327438      -0.77390862      -1.18777490
H        1.00335336       0.16819507      -1.35749841
H       -0.02481474      -0.91159266      -0.47085762
H       -0.21357721       0.53088886      -1.41056907
H        0.23008507      -0.32685301      -1.81609118
H        0.39965200       0.36740488      -1.61287808
H       -0.36829108      -0.79172105      -1.41109788
H        0.06856912       0.44864482      -0.27628267
H        0.79701126      -0.29687810      -0.47806966
H       -0.46779630       0.28804117      -1.73464561
H       -0.70432675      -0.17700648      -0.66107792
H        0.37162048       0.01229829      -0.95454764
H        0.37792498      -0.01836038      -0.91367543
H        0.51093948       1.26967669      -1.81248093
H        0.46661180       1.24574590      -1.81959713
