21
Properties=species:S:1:pos:R:3 pbc="F F F"
H        0.00000000       0.00000000       0.00000000
H        0.30968034       0.89379078      -0.23086154
H       -0.49229568       0.66417724      -0.82872105
H        0.89394069       0.12438690      -0.48859164
H        0.60653895      -0.70907992      -0.27816746
H        0.84289038       0.03999369      -1.45726728
H        0.25295329      -0.73460841      -1.46244431
H        0.15513568       0.08186400      -2.07655215
H        0.06425029      -0.95972347      -1.04703784
H       -0.85331619      -0.15966894      -0.54743141
H       -0.63311577      -0.14276993      -1.49573886
H       -0.32266989      -0.87668937      -0.42499858
H        0.93672192       0.62959892      -0.99920088
H        0.48602304      -0.48574299      -0.79049563
H       -0.21967563       0.73707771      -1.44100082
H       -0.50416946      -0.77438349      -1.29143834
H        0.19837829       0.82603270      -0.50791889
H        0.67611253       0.79066676      -1.36475682
H       -0.21693391      -0.38439035      -1.52050507
H       -0.26783097       0.78593683      -0.33884656
H       -1.79342747      -0.17748140      -0.13609549
