21
Properties=species:S:1:pos:R:3 pbc="F F F"
H        0.00000000       0.00000000       0.00000000
H        0.63848275      -0.52769721      -0.51179713
H        0.36836821       0.08895500      -0.95379025
H       -0.86782366      -0.46354809      -0.29211155
H       -0.41069558       0.24553183      -0.77821910
H       -0.29326046      -0.19419162      -1.60963809
H       -0.81841904      -1.32119048      -0.85365641
H       -0.25244665      -1.02273870      -1.65610623
H       -0.12843961      -1.01761651       0.03582861
H       -0.84400409      -0.52907026      -1.17858922
H        0.67118365      -0.65688658      -1.39845705
H        0.42646825      -1.45128560      -0.79648656
H       -0.64661109      -1.51266456      -0.69884789
H        0.00455254      -1.55760193      -0.63130045
H        0.11099085      -0.83850533      -0.54420447
H        0.02336419      -0.38094485      -0.69987226
H        0.60929632      -1.32100344      -1.78562486
H       -0.21947187      -1.37715864      -1.09706306
H       -1.79580212      -0.44664910       0.00222069
H       -0.68213761      -0.77858245      -0.55662954
H       -0.73798299      -0.73513794      -0.67640656
