21
Properties=species:S:1:pos:R:3 pbc="F F F"
H        0.00000000       0.00000000       0.00000000
H        0.97460508       0.08895500       0.30912116
H        0.05380987       0.08895500      -1.02103639
H        0.25206518       0.75366068       0.56260079
H        0.88400388      -0.43699658      -0.72527170
H       -0.32266989       0.87668937      -0.42499858
H        1.23573470       0.96783119       0.22122432
H        1.03281748       1.34628534      -0.65265095
H        0.73600858       0.81150287      -1.27765536
H        0.29673132       1.67108846      -0.22853950
H        0.80084646       0.50356454      -1.24734163
H        0.86375725      -1.30511093      -0.73633772
H        0.81704420      -0.29273129      -0.57438380
H        0.42734107       1.80734301       0.18910021
H        0.44971052       1.26892245      -0.48612726
H        1.58597732       0.01216590       0.08947544
H        0.58791912       1.82102597       0.39406526
H       -0.31813186       0.82893032      -0.08806419
H        1.12951601       0.51003850      -0.88321167
H        1.04290223      -1.02015722      -0.11481021
H        1.03387165       0.35653338      -0.89994091
