21
Properties=species:S:1:pos:R:3 pbc="F F F"
H        0.00000000       0.00000000       0.00000000
H       -0.56912082      -0.52595156       0.67290437
H       -1.00576663       0.19475858       0.06185966
H        0.55821019       0.64286757       0.57310265
H        0.39266247      -0.28453934       0.98033011
H       -0.34282106       0.90383852      -0.01409914
H        0.31309903       0.44810897       1.55050397
H       -1.26447523       0.08394849       0.97714949
H       -1.06846583       0.95451516       0.63315088
H       -0.20649230       1.20515871       1.01029849
H       -0.43678582      -0.12704039       1.60921693
H       -0.64256167       0.63287997       1.57566869
H       -0.24376583       0.87248111      -0.02475685
H       -0.29801387       0.54423058       1.48355567
H       -0.45647919       0.05332685       0.89565086
H       -0.03618668       1.77949166       0.45653862
H        0.00470127       2.06755304       0.22669947
H       -0.04214859       1.79925275       0.47592419
H       -0.16580819       1.22544909       1.18822408
H        1.06544495       0.44686499       0.83888340
H        1.04555213       0.44686499       0.87380898
