16
Properties=species:S:1:pos:R:3 pbc="F F F"
H        0.00000000       0.00000000       0.00000000
H        0.15274149      -0.33235219      -0.95892441
H        0.42330277       0.73181123      -0.48304045
H       -0.76423192      -0.27619702      -0.39312083
H       -0.51986414       0.81366080       0.12553222
H       -0.79616332      -0.17268325      -1.31586885
H       -1.11951184       0.67036819      -0.55873942
H       -0.59259683       1.22614694      -1.16001415
H       -1.18964720       0.33851755      -1.09630764
H       -0.35944653       1.31264055      -0.69504464
H        0.49101675       0.19475858      -0.87994069
H        0.29531777       0.87905645      -1.35799575
H       -0.12591130       0.46319115      -1.62325609
H       -0.40188497       0.44866461      -0.05065867
H       -0.81017828       0.78777963      -1.47516584
H        0.03749019       0.01421207      -1.72355008
