21
Properties=species:S:1:pos:R:3 pbc="F F F"
H        0.00000000       0.00000000       0.00000000
H       -0.19310522      -0.77460212      -0.55746114
H       -0.58338594      -0.49897972       0.59894991
H       -0.01300058      -0.97334045       0.02236632
H       -0.58902711       0.28314662      -0.72175890
H       -1.10687208       0.23246998       0.10124141
H       -1.18966913      -1.13485408       0.17925316
H       -0.59283602      -1.33919251      -0.74135286
H       -1.04181933      -0.47051406      -1.14013159
H       -1.17404950      -1.37194932      -0.71062303
H       -1.53029728      -0.69493693       0.21935713
H       -1.44070148      -0.49307311      -0.77998626
H       -1.46417117      -0.03172189      -0.82388771
H       -0.88087481      -1.41311693      -0.01573795
H       -0.09964263       0.07280104      -0.01416463
H       -0.15336278       0.09511426       0.95622420
H       -0.68590826      -0.68321311      -0.56634045
H       -0.13641581       0.05490032       0.99763155
H        0.38402551       0.14281413       0.83255213
H        0.26220775      -0.30469131       0.56182390
H       -1.24751973      -1.41559398       0.94694263
