21
Properties=species:S:1:pos:R:3 pbc="F F F"
H        0.00000000       0.00000000       0.00000000
H        0.14728610      -1.02954066      -0.28719354
H        0.44288322       0.52595156       0.76194048
H        0.00030798      -0.23514163      -0.92016387
H        0.94855076      -0.60099375      -1.06268322
H       -0.44968930       0.22749975       0.35259384
H        0.68727177       0.37832540      -0.90146530
H       -0.52530521      -0.76188302       0.61475372
H        1.66747010       0.04524463      -0.58345652
H        1.54192138      -0.33320957       0.30484015
H        0.45190871      -0.41367763       0.54469895
H        1.18350685      -1.14968204      -0.20332885
H        0.61973792       0.12040770       0.63337684
H        0.26303524      -0.70846713       1.26972711
H        1.12343585       0.62843543      -0.02490819
H       -0.60604823      -0.18251556       1.41598976
H        0.00881588       0.42900205      -0.20490909
H        0.83867121      -0.68613398       0.64492548
H        0.33624011       0.04709798       1.75168920
H       -0.25277609       0.71734393       1.24458551
H        0.60364002       0.61209345       1.14645934
