16
Properties=species:S:1:pos:R:3 pbc="F F F"
H        0.00000000       0.00000000       0.00000000
H        0.63883960       0.60990006      -0.40983751
H        0.59598142      -0.41450709      -0.45541269
H        0.05772869       0.96543115      -0.11256531
H        0.37852991       0.83951360      -1.37567413
H       -0.76830816      -0.15966894      -0.66146219
H       -0.50069731       0.43977645      -0.70990115
H       -0.80075270       0.59399176      -1.27709508
H       -0.50654072       0.44060242      -1.70860636
H       -0.52243453       1.04526258      -0.82346296
H        0.86943340       0.19539297      -1.16344297
H        0.20306891      -0.64412063      -1.37531543
H        0.01567633       0.20467848      -1.81404662
H        0.77337635       1.16018975      -0.82196045
H       -0.28128818      -0.41031253      -1.46647787
H        0.06349719      -0.54690319      -0.58091819
