21
Properties=species:S:1:pos:R:3 pbc="F F F"
H        0.00000000       0.00000000       0.00000000
H        0.88791460       0.34709048      -0.19798161
H        0.64716327      -0.09268597       0.63670176
H        0.64716327       0.60413074       1.39020717
H        1.32061470       0.64554226       0.68350637
H       -0.27479482       0.17150590       1.00210536
H        0.91583663       1.30755329      -0.04052590
H       -0.56464380       0.79439902       0.32160750
H        0.03650373       1.52621031       0.09547707
H       -0.06664628       1.15579772       1.20452642
H        0.78492695       1.39920294       0.98862123
H        0.12993205       0.81909829      -0.42383319
H        0.46239322       1.40820217       0.96309054
H        1.00395548       1.30148888       0.74037373
H       -0.21587613       1.60154045       1.51867950
H       -0.06726663       1.50565743      -1.08399892
H       -0.01640842       0.57655972      -0.79720318
H       -0.36044902       1.67045319      -0.28334826
H        0.79473019       1.33087409      -0.81059438
H        1.23264670       1.62913895      -0.05719858
H        0.73927373       1.94993138      -1.06276083
