21
Properties=species:S:1:pos:R:3 pbc="F F F"
H        0.00000000       0.00000000       0.00000000
H        0.36038706      -0.22961354      -0.93312520
H       -0.44470924      -0.74740851      -0.54492033
H       -0.03261930      -0.66301531      -1.42305505
H       -0.24729288       0.24364161      -1.70580828
H       -1.19437099       0.36802852      -1.33044875
H       -1.21479023      -0.19162971      -0.33010393
H        0.21013896       0.66108263      -0.68328053
H       -1.41466475      -0.57061678      -1.19452012
H       -1.02447677       0.68821794      -0.70119661
H       -0.62812436       0.56278712      -0.49692744
H       -0.53794444       0.80437529      -1.20113778
H       -0.46406680      -0.93646884      -1.06866431
H       -1.00353003      -0.28209507      -1.71244454
H       -0.10621731       0.54307455      -1.59654593
H       -1.36372018       0.45190889      -0.71252763
H       -0.71157706      -0.76537538      -0.47267473
H       -0.51379275      -0.89967906      -0.59400505
H       -1.32011867      -0.58934271      -2.26915383
H       -1.32011867      -0.58934271      -2.26915383
H       -0.18832842      -0.78349358      -0.69304049
