21
Properties=species:S:1:pos:R:3 pbc="F F F"
H        0.00000000       0.00000000       0.00000000
H       -0.90169489       0.25064358      -0.26867270
H       -0.07613508       0.43977645      -0.86536759
H       -1.01011121      -0.75527942      -0.09636889
H        0.73557186      -0.14604440      -0.63893968
H        0.17726777      -0.30763206      -1.52148604
H        0.22347331      -1.23503900      -1.08433008
H       -0.73890883      -0.78142172      -1.26371622
H        0.45180562      -0.84286118       0.05909115
H       -0.51993370      -1.35304713      -0.46668857
H        0.01105148      -0.85799909       0.25878096
H       -1.05525815      -0.62017494      -0.95302731
H       -0.63835472       0.25967270      -0.94204926
H       -0.46477968      -0.55337572       0.48300034
H        0.22347331      -1.21631312      -0.00554526
H        0.17589724       0.71995485      -0.21576518
H        0.75905460      -0.46367049      -0.67024398
H       -1.34043765      -0.62604582      -0.57239038
H       -0.00079985       0.13034064       0.39684266
H        0.11477093       0.42169005       0.65351015
H        0.16845343       1.41681051      -0.63985145
