21
Properties=species:S:1:pos:R:3 pbc="F F F"
H        0.00000000       0.00000000       0.00000000
H       -0.61304885      -0.15966894      -0.80746567
H       -0.64367169       0.55622131       0.57413280
H       -1.38977313      -0.21308485      -1.47617352
H       -0.67138314      -0.39084059       0.34970737
H       -1.38725793       0.96558326       0.09709689
H       -1.48765242      -0.64457440      -0.55012804
H       -1.47926497      -0.58559918      -0.25255489
H       -0.29740280      -0.96830887      -0.83244693
H       -0.53290927       0.03633364      -0.24045235
H       -1.71567726       0.46660355      -0.67181194
H       -1.59954429       0.34948221      -2.79313588
H       -1.35471296      -0.33194613      -0.55032754
H       -1.90460563      -0.01514733      -0.47784323
H       -2.65787721       0.74445432      -0.61825156
H       -1.79623926       0.60012579      -1.87305450
H       -2.04028583      -0.85954243       0.38575369
H       -2.82682657       0.72662294      -0.51833361
H       -1.94241834       0.12802130      -0.11173479
H        0.31672841      -0.11310041       0.01710671
H       -1.64635122      -0.35959771      -2.12749648
