15
Properties=species:S:1:pos:R:3 pbc="F F F"
H        0.00000000       0.00000000       0.00000000
H        0.15607943       0.96046287      -0.03480161
H       -0.37550828      -0.18477097      -0.87915534
H       -0.75360477       0.61337239      -0.04278450
H        0.52130592       0.19368324      -0.85554010
H       -0.54337668       1.34518361      -0.64967620
H        0.45761168       1.27577138      -0.90527266
H       -0.46475145       0.96672940      -1.54334927
H       -0.02566981       0.41152173      -1.63105583
H       -0.83052570       0.03932250      -1.29952669
H       -1.05027533       0.28489006      -0.35745728
H       -1.16141558       0.65968943      -0.95981550
H        0.48787472       0.91605276      -1.34842265
H        0.68811715       0.64286757      -0.40809318
H       -0.41735518       0.92775762       0.13188651
