15
Properties=species:S:1:pos:R:3 pbc="F F F"
H        0.00000000       0.00000000       0.00000000
H        0.41703188       0.87984765      -0.00365971
H        0.84270966      -0.05341591      -0.58336192
H       -0.22606573       0.43977645      -0.83877999
H        0.66613066       0.90224940      -0.25344142
H        0.14743119      -0.51588881      -0.81580800
H        0.34172806       0.99555528      -1.40161300
H        0.37362513       0.17558458      -1.62865174
H        0.89136875       0.14329264       0.18239209
H        0.13732323       1.23438656      -0.40912423
H        0.55478561       0.36872113      -1.65165687
H        0.46815726       0.25142086      -1.66462946
H        1.16780925      -0.23592925       0.14224923
H        0.56069702      -0.57433301      -0.14585221
H        1.30422783      -0.19073117      -0.71419823
