17
Properties=species:S:1:pos:R:3 pbc="F F F"
H        0.00000000       0.00000000       0.00000000
H        0.52691501       0.55577880      -0.60127473
H       -0.38824743       0.15686762      -0.83933270
H        0.89941758       0.21783850      -0.30274606
H        0.91644138       0.13344529      -1.27261662
H        1.05850589      -0.52956998      -0.98787040
H       -0.30866921      -0.61281145      -1.33893180
H       -0.26075038      -1.44794893      -0.65748012
H        0.59430009      -1.07635951      -1.18696654
H        0.60656017      -0.29750293      -1.44379663
H       -0.00622857       0.15034430      -1.58318949
H       -0.49952263      -0.74740851      -0.49515820
H        0.68155372      -1.29646814      -0.46466559
H        0.33624470      -0.89888930      -0.01912513
H        0.58192259      -0.62763917      -0.12190856
H        0.33496636       0.19778159      -1.42791343
H       -0.20582598       0.13689193      -0.39687446
