21
Properties=species:S:1:pos:R:3 pbc="F F F"
H        0.00000000       0.00000000       0.00000000
H        0.87909138       0.39891118       0.34841394
H        0.78226173       0.08360267       1.26452827
H        0.14663762      -0.29790556       0.52528048
H       -0.69522756       0.28314662       0.62011886
H       -0.57307893       1.22179198       0.84834164
H       -0.51913899       1.27520788      -0.17516273
H       -0.26623991       0.26624763       1.49404383
H        0.34612036       1.62070322       1.07030201
H        0.29211542       1.63851571       0.04556298
H        0.65170133       0.85834283      -0.05157773
H        0.23433331       0.72692305      -0.42239419
H        0.31217211       0.92334020       1.27328980
H       -0.41314158       0.36196220      -0.11962223
H       -0.42128935       1.54956067       0.77800041
H        0.88866961       0.50445330       0.77696389
H       -0.02601773      -0.47552264       0.60273886
H       -0.62620670       0.78639078       0.89903957
H        0.43167523       0.84318006       1.66257048
H        0.38125089       0.95355833       0.21210395
H        0.41619906       0.24569480       0.52646488
