21
Properties=species:S:1:pos:R:3 pbc="F F F"
H        0.00000000       0.00000000       0.00000000
H        0.50421435      -0.31530851      -0.77097952
H        0.94363707      -1.17365134      -0.28695208
H        0.92177206       0.25064358       0.18861325
H       -0.01658708      -1.29165947      -0.39697254
H        0.79753184       0.41031253      -0.81756479
H        1.50347996      -0.22179171      -0.37493643
H        1.37690842      -0.56301725       0.46944767
H        0.32482061      -0.55622131       0.79902017
H        0.62670279       0.41185415       0.95720035
H        1.26666915       0.74420631       0.22692025
H        2.11956024       0.27454528       0.21943560
H       -0.08277485      -0.96046287      -0.13682202
H        1.59605539       0.55769193       0.99004030
H        1.08304715      -1.19908881       0.54379928
H        1.17526114      -0.31118113       0.77063489
H        2.09447241      -0.38653734       0.93385935
H        1.54646325      -0.73744553      -0.39966819
H        0.80197591       0.22961354      -0.59785968
H       -1.15580559       0.10264038       0.23650132
H        2.27848196      -0.57077074      -0.22136915
