21
Properties=species:S:1:pos:R:3 pbc="F F F"
H        0.00000000       0.00000000       0.00000000
H       -0.07115869       0.77136850       0.67323917
H        0.21398498       0.85576171      -0.25392407
H        0.44503677       1.46818519       0.12431973
H        0.81943500       0.82478440       1.18050003
H        1.55289733       0.52651960       0.70995879
H        1.37286317       1.52160120       0.66914141
H        1.16855645       0.52340949      -0.43185455
H        1.09770966      -0.30832154       0.06940901
H        0.28376216      -0.10847914       0.89223725
H        1.16154003       0.21121109      -0.12399626
H        0.89122391       1.00463712      -0.67528278
H        1.53800392       0.88451684      -0.13854229
H        1.07103562      -0.40693095       0.30533797
H        0.42446339       0.22168282       0.89986885
H        0.42446339       0.22168282       0.89986885
H        0.49228263       0.06623748       0.96606672
H        0.39214665      -0.40556833       0.43195251
H        0.39214665      -0.40556833       0.43195251
H       -0.13106781       0.75963145       0.26700881
H       -0.12161660       0.75963145       0.27144405
