21
Properties=species:S:1:pos:R:3 pbc="F F F"
H        0.00000000       0.00000000       0.00000000
H        0.44047090       0.80291802      -0.09821343
H        0.00000000       0.58319080       0.77971113
H        0.65314597      -0.63587439       0.34223530
H        1.42175698       0.92730492       0.17551899
H        0.17594706      -0.19475858       0.99218732
H        0.87747467       1.06710982       0.79204172
H        0.91716063      -0.01781246      -0.46024221
H        1.60231328      -0.31626427       0.24318957
H        1.48901904       0.56145287       1.13205028
H        1.12443733      -0.34623939       1.15181351
H        1.57030654       0.61806196      -0.11800691
H        0.66553187       0.26788229       1.41666389
H        1.65450382       0.00523156       0.28555363
H        1.25576866       0.15701288      -0.54382205
H        0.77481276       0.12697083       0.81483930
H        0.63332635       0.96771371      -0.92875791
H        0.46961921       0.78348035       0.22952199
H        0.51240152       0.38530707       0.21532333
H        0.59529513       0.26887149       0.15425432
H        2.59122729       0.86567116      -0.00025053
