21
Properties=species:S:1:pos:R:3 pbc="F F F"
H        0.00000000       0.00000000       0.00000000
H       -0.12270200      -0.91159266      -0.45526573
H       -0.96315640       0.08895500       0.34313369
H       -1.01980543      -0.56450218      -0.30428749
H       -0.93727863      -0.54691941       1.08005631
H       -0.13901114      -0.19982892       0.64375579
H       -0.06364119      -0.95628136       0.94875002
H        0.02622563      -1.38125372       0.38455567
H        0.34020817      -0.77136850       0.58529735
H        0.04539597      -1.29906571      -0.17803901
H       -0.87982196      -1.22977293       0.70734382
H       -0.96411806      -1.07829213      -0.25078386
H       -1.43561769      -0.41330051       0.42843902
H       -0.94314647      -0.19475858      -0.35477829
H       -0.12288100      -1.39762998      -0.04298383
H        0.57126737      -0.88051391       0.24995212
H       -0.77011395      -0.80401933       0.40352422
H       -0.59326929      -1.20949578       0.52917564
H        0.34460706      -0.09416373      -0.48859245
H       -0.23948710       0.92909771      -0.16578385
H       -0.16927896       0.99825430      -0.16779993
