21
Properties=species:S:1:pos:R:3 pbc="F F F"
H        0.00000000       0.00000000       0.00000000
H       -0.51304650      -0.77136850      -0.44169885
H       -0.19885594      -1.54597068       0.05763754
H        0.58814174      -0.81341970      -0.03253485
H       -0.93897867      -0.05341591       0.41084030
H       -0.90218639      -1.52907169       0.73076582
H        0.23680928       0.01689900       0.94429690
H       -0.54634643      -0.84802604       0.81394756
H        0.24938752      -0.89634669       1.06330109
H       -1.05756688      -0.86032349       0.42369616
H       -0.74810457      -0.87853426       1.30416667
H       -0.66120100      -0.14276993       1.41483617
H       -0.69286203      -1.20074284       1.56546426
H        0.65540379      -0.44756761       0.92399639
H        0.59079903      -0.22961354       0.80719143
H        0.47206020      -1.05092263       0.65607119
H       -1.19723821      -0.73513168       0.04467356
H        0.38719660      -0.92284930      -0.78033841
H       -0.30370367      -0.74033594      -0.38681826
H       -0.69027871       0.86501473       0.61746657
H       -0.92874932       0.10538328       0.43969077
