8
Properties=species:S:1:pos:R:3 pbc="F F F"
H        0.00000000       0.00000000       0.00000000
H       -0.07115869       0.77136850       0.67323917
H        0.66647202       1.14982271       0.16261768
H        1.34963226       0.75091153       0.81644171
H        0.75287664       0.46354809      -0.52117538
H        1.38938689      -0.00611293       0.04656941
H        0.55714869       0.31942195       1.30543089
H        0.61455214      -0.43760252       0.56306893
