8
Properties=species:S:1:pos:R:3 pbc="F F F"
H        0.00000000       0.00000000       0.00000000
H       -0.01035373      -0.77460212      -0.58986890
H       -0.74892592      -0.45929360      -1.14046192
H        0.53890663      -0.33482566      -1.26289988
H       -0.17373681      -0.11220312      -1.84526443
H       -0.76598114       0.28314662      -0.53024691
H        0.61588693       0.49504808      -0.65493083
H       -0.21320918       0.68240702      -1.28392899
