8
Properties=species:S:1:pos:R:3 pbc="F F F"
H        0.00000000       0.00000000       0.00000000
H       -0.61304885      -0.15966894      -0.80746567
H       -0.57119292       0.74740851       0.41041824
H       -0.00659895       0.51057702      -1.29358578
H       -1.13028193       0.66301531      -0.38227221
H       -0.54101968       1.24238825      -0.93734455
H        0.65526712       0.56399292      -0.51102328
H        0.06432277       1.29580414      -0.11028278
