8
Properties=species:S:1:pos:R:3 pbc="F F F"
H        0.00000000       0.00000000       0.00000000
H       -0.06381270       0.34709048       0.90747839
H        0.79552454       0.04882568       1.05210054
H        0.94682133      -0.10265511       0.10224599
H        1.00945425       0.97792339       0.85443300
H        1.12979054       0.67947161      -0.12012821
H        0.07733405       0.88421780      -0.24071647
H        0.00716747       1.11383128       0.75712031
