8
Properties=species:S:1:pos:R:3 pbc="F F F"
H        0.00000000       0.00000000       0.00000000
H        0.85755634      -0.19475858       0.52914101
H       -0.30458406      -0.91843063       0.10851098
H        0.43587098      -0.97184652       0.81716949
H        0.93221956      -1.33769858      -0.00326586
H        1.31485355      -0.60412055      -0.22674453
H        0.16225094      -1.38809168      -0.60531288
H        0.47547537      -0.43977645      -0.72703558
