8
Properties=species:S:1:pos:R:3 pbc="F F F"
H        0.00000000       0.00000000       0.00000000
H        0.47219095      -0.55577880       0.64514065
H        0.00925052      -0.24047029       1.44158757
H       -0.64965498       0.11800810       0.71559995
H       -0.13566822       0.99469745       0.85897797
H        0.42531919       0.55492103       1.52226591
H        0.94282061       0.27595222       0.83166724
H        0.45921743       0.74405384       0.13004059
