8
Properties=species:S:1:pos:R:3 pbc="F F F"
H        0.00000000       0.00000000       0.00000000
H       -0.73394406      -0.63587439       0.07106813
H       -0.64964813      -0.78735518      -0.88705957
H        0.52313256      -0.79461014       0.20733529
H       -0.20945126      -1.43048453       0.12339738
H        0.14887124      -0.14448762      -0.83794653
H        0.73650837      -0.89814830      -0.65156227
H       -0.05831963      -1.54101586      -0.74263197
