8
Properties=species:S:1:pos:R:3 pbc="F F F"
H        0.00000000       0.00000000       0.00000000
H        0.36329272       0.89468008       0.34769225
H        0.39291257       0.22961354      -0.91990280
H        1.33234072      -0.13623855      -0.72767675
H        0.69420815       1.10946119      -0.63154542
H        0.90774620      -0.46354809       0.12018245
H        1.25240850       0.38525102       0.45004436
H        1.59138441       0.63589460      -0.42764238
