9
Properties=species:S:1:pos:R:3 pbc="F F F"
H        0.00000000       0.00000000       0.00000000
H       -0.12270200      -0.91159266      -0.45526573
H       -0.89749557       0.36585209      -0.33760604
H       -0.93105894      -0.59628415      -0.89708084
H       -1.37527084      -0.01260212       0.42171225
H       -0.52012902      -0.39105633       0.69294250
H       -1.30301893      -0.94337463      -0.06687915
H       -0.96657687      -0.49179032      -0.89707124
H       -0.51085120      -1.33161747       0.16437274
