11
Properties=species:S:1:pos:R:3 pbc="F F F"
H        0.00000000       0.00000000       0.00000000
H       -0.49101692      -0.19475858      -0.87994057
H        0.07288510       0.55264992      -1.30032015
H       -0.64284182       0.68549418       0.25478023
H        0.00526023       1.38231087      -0.12958169
H       -1.12422180       0.46632403      -0.54815400
H       -0.67576742       1.22289586      -1.09148133
H        0.69175422       0.63490236      -0.28265178
H        0.16987944       0.50413662      -1.21789193
H        0.47421300       0.63987178      -0.32491231
H        0.46235859       0.68818891      -0.27370530
