10
Properties=species:S:1:pos:R:3 pbc="F F F"
H        0.00000000       0.00000000       0.00000000
H        0.50421435      -0.31530851      -0.77097952
H        0.63719434      -1.30572534      -0.36414018
H        0.77068615       0.21783850       0.55375999
H        0.13179076      -1.08788681       0.43908736
H        1.00738871      -0.89312822       0.93780702
H        1.54313540      -1.02798510       0.15186223
H        0.80415088      -0.63096058       1.02966034
H       -0.06598588      -0.91159266       0.46687099
H        0.90385342      -0.29617387       0.21376419
