8
Properties=species:S:1:pos:R:3 pbc="F F F"
H        0.00000000       0.00000000       0.00000000
H        0.49089283       0.77460212       0.32722577
H       -0.32484525       1.30229926       0.26266569
H       -0.57145298       1.14263034       1.24603462
H       -0.84266430       0.58582085      -0.00739476
H       -0.23084143      -0.21783850       0.92049956
H        0.24757349       0.54498857       1.29748201
H       -1.06927383       0.30267423       0.89622962
