9
Properties=species:S:1:pos:R:3 pbc="F F F"
H        0.00000000       0.00000000       0.00000000
H       -0.67230010      -0.60990006       0.35227177
H       -1.21570075       0.22766191       0.59003103
H       -0.18807483      -0.62771249       1.25699961
H       -0.50880784       0.84237647       0.17080274
H        0.56877637      -0.07149118       0.84333551
H       -0.73414040       0.12594819       1.54312706
H        0.07033476       0.72311896       1.10450888
H       -0.43298694       0.67244232       0.27254730
