8
Properties=species:S:1:pos:R:3 pbc="F F F"
H        0.00000000       0.00000000       0.00000000
H        0.63772744       0.77136850       0.22719663
H       -0.80183977       0.55622131       0.31779659
H       -0.88046515       0.93467551      -0.57587641
H       -0.14647941       0.43148959      -0.91961098
H       -0.29973108       1.68833613      -0.36898422
H        0.49513280       1.24241543      -0.61161709
H       -0.22373921       1.37269378       0.54691756
