8
Properties=species:S:1:pos:R:3 pbc="F F F"
H        0.00000000       0.00000000       0.00000000
H       -0.92830116      -0.43148959      -0.07346868
H        0.30040231      -0.75366068      -0.53834462
H        0.45208636      -1.19343710       0.31702048
H        0.19142583      -0.46354809       0.89543462
H       -0.59089136      -1.13211489      -0.64046717
H       -0.44196373      -1.60177588       0.19935423
H       -0.75350726      -0.93046927       0.74416649
