8
Properties=species:S:1:pos:R:3 pbc="F F F"
H        0.00000000       0.00000000       0.00000000
H        0.69739223       0.29845181      -0.69129914
H        0.00927508       0.94131935      -1.09939229
H        0.46327913      -0.49594721      -1.29747164
H       -0.75685120       0.55622131      -0.41366416
H       -1.03312397      -0.19118720      -1.06048536
H       -0.25262484       0.18765867      -1.65748262
H       -0.26952827      -0.79439902      -0.64383286
