21
Properties=species:S:1:pos:R:3 pbc="F F F"
H        0.00000000       0.00000000       0.00000000
H        0.45279220       0.75366068      -0.41837266
H        1.17158663       0.43835217      -0.99454629
H        0.16998775      -0.01689900       0.95858204
H        0.73825204       0.75770313       1.11710095
H        0.85455650       1.30943942       0.27282652
H        1.81728101       1.29254043       0.12813057
H        2.30493140       0.82899237       0.90314287
H        2.75608492       0.03438222       0.56681550
H        1.60431647       0.47455651       1.46035194
H        1.18602407      -0.53352135      -0.93697590
H        2.08628559       0.77070439      -0.66867578
H        2.31344414      -0.80317974       0.96163565
H        1.56145418      -0.60842115       1.63238454
H        0.71113580      -0.92372966       1.27798343
H        0.70100921      -0.87454140       1.14776361
H        0.50308353      -0.48560083       2.28682947
H        0.50308353      -0.48560083       2.28682947
H        0.50308353      -0.48560083       2.28682947
H        0.50308353      -0.48560083       2.28682947
H        0.50308353      -0.48560083       2.28682947
