21
Properties=species:S:1:pos:R:3 pbc="F F F"
H        0.00000000       0.00000000       0.00000000
H       -0.21671417       0.94706190      -0.06457304
H       -0.85205346      -0.49504808      -0.28680325
H       -0.04577996       1.40067911       0.89934611
H        0.31475931       0.62931061       1.47234344
H       -1.22185528       1.03601694      -0.25192940
H       -1.13136864      -0.99009615       0.56773418
H       -1.52127242       0.19044611      -0.46088487
H       -0.48878121      -0.80532515       1.27554905
H       -0.94812739      -0.24910384       2.00557852
H       -2.28153324       0.06605921       0.21724141
H       -0.44621253       0.64557624       2.03644896
H       -0.93655723       1.79959035       1.21669400
H        0.41736811      -0.18435019       0.94747347
H       -1.85970032      -0.09762305       1.69874084
H       -2.28153324       0.90362120       0.81038034
H       -1.99643934       0.84943885       1.51863766
H       -2.00473022      -0.70530927       0.83505595
H       -1.10987878       1.34448695       1.66784143
H       -1.59146786       1.61481941       0.52026552
H       -0.26688057      -0.79425025       1.27593434
