21
Properties=species:S:1:pos:R:3 pbc="F F F"
H        0.00000000       0.00000000       0.00000000
H       -0.93989587      -0.24138860      -0.47165081
H       -0.11793167       0.58582085       0.83440393
H        0.42215070      -0.87668937       0.32638690
H        0.45811981      -0.82327348       1.35068035
H        0.09644245       0.05986929       1.68923879
H       -0.23616615      -1.62409782       0.07875140
H       -1.72164416       0.24593122       0.09005746
H       -1.07465363      -1.19572592      -0.33329791
H       -1.22640514       0.77188277       0.81905484
H       -1.07794631       0.73730165       0.89344960
H       -2.03674483       0.63294619       0.12056880
H       -1.85101533      -1.38049686       0.22453994
H       -2.20800757      -0.45308995       0.48104891
H       -3.08854198      -0.59638262       0.25199854
H       -3.24289536       0.24117935      -0.32070446
H        0.02525690      -0.26815867       2.19289923
H       -3.30109191      -1.37098479      -0.29834223
H       -3.55662942      -1.07253301      -1.24647236
H       -0.69548535      -0.82393748       2.53887820
H       -1.06090593      -1.10275674      -0.45569146
