21
Properties=species:S:1:pos:R:3 pbc="F F F"
H        0.00000000       0.00000000       0.00000000
H        0.30968034       0.89379078      -0.23086154
H       -0.09768263       1.25964284      -1.09892344
H       -0.55705321      -0.31530851      -0.73371202
H        0.72240853      -0.63587439       0.14781943
H        0.68478656      -1.29695702      -0.56605399
H        1.50419807      -1.28005803      -1.09173453
H        1.32553566      -0.84856844      -2.00563836
H       -0.13806233      -1.08991063      -1.14904225
H        1.32444394       0.87597835      -0.38337889
H        1.50119042       1.19128680      -1.28748190
H       -0.65431428       0.48827434      -1.48424911
H       -0.49541047       0.43210000      -1.43435788
H       -1.73079562       0.29320252      -1.32270980
H        1.68507779      -0.06612533      -0.19441405
H        2.15390158      -0.63719046      -0.62490410
H       -2.08321810       0.34661841      -0.36028099
H       -1.73079562       0.29320252      -1.32270980
H       -2.06893778       1.10686326      -1.73704898
H       -2.61614871       1.65978670      -0.98941058
H       -1.73079562       0.29320252      -1.32270980
