21
Properties=species:S:1:pos:R:3 pbc="F F F"
H        0.00000000       0.00000000       0.00000000
H       -0.61304885      -0.15966894      -0.80746567
H       -0.33189824       0.74740851       0.62011933
H       -0.00817478       0.06994461      -1.60416436
H       -1.14025521       1.06271696       0.17830423
H       -0.44816878       0.80175585      -2.07205176
H       -1.36471021       0.50649565      -0.65449929
H       -0.95371616       2.03079247      -0.10692725
H        0.33535907       1.45648837       0.61426371
H        0.87813073       0.32058817      -1.28840935
H       -1.03903842       2.04769158      -1.07671869
H        0.21908852       1.51083577      -2.07790732
H       -1.29459465       1.14936328      -1.45144916
H        0.91409981       0.26717228      -0.26411593
H       -0.21182311       2.21991563      -1.56841564
H        1.04957712       1.19552732      -1.67924690
H       -0.03961200       2.24863100       0.14806464
H        0.44605553       2.34430242      -0.79056770
H        1.07393110       1.14117980       0.06367052
H       -1.21225095       1.05239940      -1.52303708
H       -2.25757027       0.20165887      -1.37020147
