21
Properties=species:S:1:pos:R:3 pbc="F F F"
H        0.00000000       0.00000000       0.00000000
H        0.93511528      -0.39891118      -0.14054634
H        1.01681066      -1.06915712       0.63238323
H        1.01536560      -0.86245930      -1.05269051
H        1.11114097      -1.94900477       0.22614345
H        0.24662364      -1.05225813       1.22785544
H       -0.58078772      -0.19475858      -0.82345533
H        0.00036299      -0.72245580      -1.39952862
H       -0.19573891      -1.91710258       1.16136909
H       -1.05540073      -1.76562178       0.72998065
H       -0.42506999      -1.64986277      -1.51019502
H       -1.32402349      -0.75053740      -0.52888554
H        1.14518487      -1.81679666      -0.90969360
H        0.34592354      -2.53181720       0.54326576
H        0.37929082      -2.34449387      -1.19779587
H        0.20246083      -2.28573704      -1.12298751
H       -0.19280563      -1.35113919      -2.11158109
H        1.02153158      -1.86004972      -0.79237568
H        1.62556839      -1.71177387      -0.36088148
H        1.81762004      -0.75083005      -1.49117017
H        1.08906198      -0.65993619      -0.27059001
