21
Properties=species:S:1:pos:R:3 pbc="F F F"
H        0.00000000       0.00000000       0.00000000
H        0.87909138       0.39891118       0.34841394
H        0.84517229       0.28090307       1.31432509
H        1.66797733      -0.09613690      -0.08275905
H        0.24040787      -0.70907992      -0.62247139
H        1.26187718      -0.79803491      -0.66731924
H       -0.12362196      -1.56672239      -0.19205794
H        2.13062000      -0.53591335       0.65250909
H       -0.65177971      -1.30253053       0.64733231
H       -0.20556101      -1.70144176       1.48104858
H       -0.50360084      -0.39891118       0.80036247
H        0.00835270      -0.27452427       1.68113232
H        0.62741572      -2.14991331       0.01744607
H        0.51247740      -2.22913885       1.08859801
H        1.50495625      -1.68636525      -0.24402970
H        2.01719022      -1.53488445       0.57005298
H        0.23370710      -1.09262037       2.03928328
H        1.15097558      -1.17245173       2.06343699
H        1.68280387      -0.31807485       1.48920965
H        1.55062187      -0.37784159       1.66728246
H        1.36496365      -1.83022761       1.49781799
