21
Properties=species:S:1:pos:R:3 pbc="F F F"
H        0.00000000       0.00000000       0.00000000
H       -0.92501378       0.29845181       0.32954502
H       -0.05677330      -0.95433736      -0.18460216
H        0.12776491      -1.10581815      -1.12856197
H        0.24216035      -0.17841125      -1.55300748
H       -1.54282117      -0.51802063       0.25875795
H       -1.18687844       0.94131935      -0.42641270
H       -0.51293749       1.02115071      -1.04912329
H        0.11059213       0.51840550      -0.81107748
H       -0.94877136      -1.28938913      -0.06592554
H       -0.46427527      -0.02693045      -2.20574260
H       -0.73125863      -1.55943537      -1.59806943
H       -1.41603005      -1.68382227      -0.84378844
H       -2.16327524      -1.10063148      -1.06644070
H       -1.10110545      -0.94953531      -2.26086378
H       -0.51171350      -0.17493320      -2.28674126
H       -1.98184717      -0.70172030      -1.99449110
H       -2.24496984      -0.33324966      -0.39001614
H       -0.95051366       0.65529859      -1.90235436
H       -2.10646439       0.48484638      -0.78985733
H       -1.90197611       0.31698930      -1.83586669
