21
Properties=species:S:1:pos:R:3 pbc="F F F"
H        0.00000000       0.00000000       0.00000000
H       -0.33100656      -0.58582085      -0.77496612
H       -0.08867799      -0.15433127      -1.67408657
H       -0.92935574      -0.06537627      -2.25604200
H       -1.68591332      -0.34852290      -1.71243405
H       -1.35557604      -0.63923675      -0.74798685
H        0.42600340       0.81647241      -0.45300972
H       -1.71772611      -0.02452219      -0.01022178
H       -1.04044616       0.94700336      -2.38280988
H       -1.94222927       1.17661691      -1.94992566
H       -0.80580151       0.34709048       0.42222381
H       -0.07243821       1.61108255      -0.19183636
H       -2.34876657       0.38200676      -1.56084585
H        0.28729576       0.72551638      -1.49360740
H       -1.76834130       1.83769953      -1.25653279
H       -2.07681942       1.45924532      -0.41411096
H       -0.27434617       1.43459630      -1.85391974
H       -2.34267139       0.54081470      -0.59814578
H       -1.22400165       1.40582943       0.15437156
H       -0.99996555       0.47673172       0.34050646
H       -0.48182747       1.98953676      -0.99010563
