21
Properties=species:S:1:pos:R:3 pbc="F F F"
H        0.00000000       0.00000000       0.00000000
H        0.87747955       0.49504808      -0.19565487
H        1.32394314      -0.06117323      -0.93363321
H       -0.02814582      -0.81366080      -0.53406453
H        1.42388833       0.44437143       0.60866493
H        2.27680898      -0.08158013       0.38679758
H        2.23937869      -0.95826948       0.91909313
H       -0.00732997      -1.65122271       0.05870897
H        1.33372068      -1.04722452       1.39363968
H        2.27773762      -1.68081737       0.19123536
H        0.82515067      -2.12088370      -0.12691234
H        2.14583898      -0.43962744      -0.57402122
H        1.40405643      -2.20676899       0.30690765
H        0.77134806      -0.86433744      -1.08751047
H        0.93006384      -0.05460829       1.28336310
H        1.24506259      -1.67799830      -0.83929360
H        0.06534797      -0.28314662       0.92931080
H        2.26223326      -1.27145541      -0.69207841
H        0.77013499      -1.77903581       1.08560658
H       -0.01461070      -1.25238287       0.88189071
H        1.40701151      -1.52209902      -1.08429551
