21
Properties=species:S:1:pos:R:3 pbc="F F F"
H        0.00000000       0.00000000       0.00000000
H        0.63772744       0.77136850       0.22719663
H       -0.95452821       0.29845181       0.23049112
H       -1.42548835       0.18044370      -0.61350620
H        0.01768451      -0.19475858      -1.00751185
H       -1.73084056       1.08710063      -0.79459769
H        0.75570029       0.48107654      -1.41088128
H       -1.32955170       1.78391743      -0.15683782
H       -1.39186466       1.33774424      -1.67228436
H        0.25872925       1.09579110      -2.06545734
H        0.38055605       2.02319813      -1.64308488
H        0.86802125       1.93880486      -0.80444527
H        0.05635870       1.60650599       0.58592081
H       -0.97720873       1.21688247       0.55303049
H        1.09205735       1.00970721      -0.61831033
H       -0.72103399       2.39381742      -0.61047769
H       -0.83051425       0.02307992      -1.43314791
H       -0.93349987       1.34231412       0.64680207
H       -0.62588251       0.69989783      -0.31268030
H       -0.76678741       0.73960078      -0.23003334
H       -2.20971394       1.47908068       0.57442349
