20
Properties=species:S:1:pos:R:3 pbc="F F F"
H        0.00000000       0.00000000       0.00000000
H        0.11786898      -0.15148079      -0.95457917
H        0.69064438      -0.58319080       0.36188370
H        1.15747941      -1.05285180      -0.35194016
H        0.75431794      -0.83501327      -1.21104908
H        0.26722085      -1.28000760       0.98516762
H        0.34798297      -1.67257524      -1.64314353
H       -0.90269935      -0.33235219       0.35777065
H        0.50759423      -2.15985537       0.64436030
H       -0.77456111      -0.58297038      -1.22049129
H       -0.69368213      -1.12852681       0.94297892
H        1.05859804      -1.97508442      -0.13686663
H        0.56067705      -2.32217503      -0.89822322
H       -1.34703577      -0.70735729      -0.37780243
H       -1.09208775      -2.05017471       0.54805422
H       -0.29669994      -2.66488934       0.34115273
H       -0.55868602      -1.46281803      -1.57732034
H       -0.28504086      -2.66926551      -0.56303620
H       -1.50925112      -1.75172293      -0.34089184
H       -1.01871717      -2.17028570      -0.96403396
