21
Properties=species:S:1:pos:R:3 pbc="F F F"
H        0.00000000       0.00000000       0.00000000
H       -0.32983679       0.96807545      -0.08579928
H        0.25969583      -0.40936196      -0.84441799
H        1.18696439      -0.69250858      -0.75463021
H       -0.27878639       1.05246866      -1.05447495
H       -1.24430656       1.17685556      -1.37947130
H        0.02285466       0.20366955      -1.42408788
H        0.31688374       1.63832140       0.34530020
H        1.60079730      -0.13672978      -1.43867195
H        0.91315043       0.41904902      -1.84648621
H        1.13718653       1.34814668      -1.66035128
H        2.23234582       0.47317028      -1.01768601
H        0.38022870       1.69523716      -1.15576839
H        0.80908364       0.05067664       0.53932959
H        0.74967659       2.13730121      -0.37008113
H        1.05196965       1.02999580       0.72711754
H        2.19698215       0.27841169      -0.01063967
H       -0.14904392       0.95213413      -0.98927331
H        0.43677589       1.19736457      -2.22874546
H        0.43677589       1.19736457      -2.22874546
H        0.43677589       1.19736457      -2.22874546
