21
Properties=species:S:1:pos:R:3 pbc="F F F"
H        0.00000000       0.00000000       0.00000000
H       -0.90169489       0.25064358      -0.26867270
H        0.19018230       0.34709048       0.88961780
H       -1.37014103      -0.66094911      -0.32234627
H        0.48849651      -0.42427802       1.49733746
H       -0.82944745      -1.45534813       0.03807637
H       -0.65901518      -2.15216494      -0.69590127
H       -1.21169114      -1.78631282      -1.47949910
H        0.45409143      -1.28262091       0.84450424
H        0.28316730      -2.13526583      -0.94098800
H        0.74221897      -1.46501994      -0.31379920
H       -1.57318950      -0.86701256      -1.19678724
H       -1.18858850      -0.15793264      -1.74208403
H        0.07312509      -1.02162731       0.06522502
H        0.40826407      -1.78586996      -1.95410228
H       -0.51505113      -1.55625641      -2.33892751
H       -0.30990303      -1.83884215       1.24482191
H       -0.59235060       0.75645244       1.29964936
H       -0.87372077       0.22875524       2.06804204
H       -0.62460041      -0.59579355      -2.45542169
H       -1.23145485      -1.72411346      -1.54980326
