20
Properties=species:S:1:pos:R:3 pbc="F F F"
H        0.00000000       0.00000000       0.00000000
H        0.75529516      -0.29845181       0.62751859
H        1.55286121      -0.38284501       0.07540715
H        0.53279829      -1.21004450       1.04323220
H        1.33530903      -0.23136422      -0.86149490
H        0.35640752       0.06708759      -0.93896824
H        1.81085956      -1.31194270       0.21059304
H        1.16774940      -1.81092238       0.74490529
H       -0.39543068      -1.47423637       0.69406533
H        0.67113596      -2.50773907       0.17820829
H        1.73343265      -1.72130466      -0.66945744
H        1.50996995      -1.10805357      -1.36571038
H       -0.73238063      -0.78874218       0.09022486
H        1.03227282      -2.46871328      -0.72494942
H        0.64151037      -1.35869718      -1.72767258
H       -0.32604659      -2.27812552       0.09928812
H       -0.12396803      -0.65546030      -1.48713589
H       -0.54069787      -2.06028700      -0.82512093
H        0.40176511      -2.20749617      -1.31521261
H       -0.83520889      -1.15050840      -0.93723798
