21
Properties=species:S:1:pos:R:3 pbc="F F F"
H        0.00000000       0.00000000       0.00000000
H        0.50421435      -0.31530851      -0.77097952
H        0.65882879      -1.37281752      -0.62300450
H        0.51017654       0.60990006       0.56196332
H        0.31190306      -1.68812609       0.23039109
H       -0.15216339      -0.87165368       0.64432228
H        1.72871184      -1.46633434      -0.51940733
H        1.02047503      -2.00343466       0.81909078
H        1.40736675       0.69885504       0.07159558
H        2.10950923       0.44821146       0.69788206
H        2.55660152      -0.32639065       0.31296530
H        2.09813309      -0.57703424      -0.50864613
H        1.34003472       0.18367121      -0.74897039
H        2.04871464      -0.47741142      -0.65514362
H        2.78927732       0.34381548       0.35212347
H        3.47907543       1.11717618       0.92522550
H        3.41794920       1.41544104       1.79450083
H        1.02047503      -1.36756027       1.55646765
H        0.30170467      -0.72017288       1.49233067
H        0.74019456       0.21098888       1.47917950
H        4.34730673       0.73872197       0.69937551
