21
Properties=species:S:1:pos:R:3 pbc="F F F"
H        0.00000000       0.00000000       0.00000000
H       -0.02074104      -0.97334045      -0.01546210
H        0.79766285      -1.43688858      -0.42614701
H       -0.63820446       0.28314662      -0.67866331
H       -1.08529687      -0.49145550      -1.06358004
H        0.89281493       0.28314662      -0.26602697
H       -0.85347337      -0.54487139      -2.06194305
H        0.81806338       0.75280762      -1.11566901
H        0.58008075      -1.93586826      -1.23345006
H       -0.23761535       0.24952763      -2.26924229
H        1.44797540      -0.55441535      -0.47485870
H       -0.17385125       0.80622351      -1.37369227
H       -0.74913758      -1.23753238      -0.68848884
H        1.08566999      -1.43688858      -1.89937770
H        0.44762719      -0.99711215      -2.48891902
H        1.33623481       0.25775954      -1.85034549
H        0.67124540      -0.05005026      -2.52252841
H       -0.52298343      -1.19187069      -2.21816444
H        1.70938897      -0.55590129      -1.46723580
H        1.25659680      -1.30956197      -1.88560843
H        0.82347715      -1.87428403      -0.56875974
