21
Properties=species:S:1:pos:R:3 pbc="F F F"
H        0.00000000       0.00000000       0.00000000
H       -0.01035373      -0.77460212      -0.58986890
H       -0.70092952      -0.72392547      -1.27441096
H        0.80807054      -0.82527876      -1.11491609
H       -0.35145196      -0.80831867      -2.17928886
H        0.85400110       0.43977645      -0.15918432
H       -0.73845625       0.64286757      -0.30777851
H       -1.12231767       0.14091891      -1.12428737
H        1.35413623      -0.07161808      -0.82878876
H        0.67829198       1.30462086      -0.57056171
H       -0.55412614       0.04048043      -2.61117339
H        0.67153966      -0.86173457      -2.11636949
H        1.08136237       1.32243335      -1.51424646
H       -1.13388515       0.59670174      -1.97256446
H       -0.34343785       1.35803676      -0.65142465
H       -0.64392614       1.41036248      -1.75818801
H        1.48669338       0.51420277      -1.66099453
H        0.30651098       1.41138840      -2.18134189
H        1.03702593       0.07442632      -2.40426874
H       -0.56337315       1.40871334      -1.59858954
H        0.19566908       0.25070798      -1.97424459
