20
Properties=species:S:1:pos:R:3 pbc="F F F"
H        0.00000000       0.00000000       0.00000000
H       -0.72715116       0.63587439       0.12237607
H       -1.53474522       0.19609794       0.44245327
H        0.22931162      -0.15966894      -0.98754537
H       -1.40168560      -0.76436496       0.53114986
H       -0.89665139       1.04523635      -0.74466103
H       -1.82290840       0.82739782      -0.95119214
H       -0.43008006      -0.92403388       0.24164611
H       -0.28292203       0.61374676      -1.44500160
H       -0.88867086       0.14408574      -2.04545784
H       -1.81795406       0.32885671      -1.82106268
H       -1.96382296      -1.23402596      -0.11031795
H       -2.54818177      -0.51147807      -0.54594755
H       -2.26969719       0.40011460      -0.16546229
H       -2.27731800      -0.61170441      -1.55942011
H       -1.34485626      -1.68764329      -0.86876291
H       -0.08144757      -1.07126164      -1.34215975
H       -1.58587503      -1.35911298      -1.68830395
H       -0.46151569      -1.62748289      -0.56789231
H       -0.86425459      -0.90340453      -2.06546092
