20
Properties=species:S:1:pos:R:3 pbc="F F F"
H        0.00000000       0.00000000       0.00000000
H        0.45934626      -0.55622131       0.73002923
H       -0.39868912       0.83756196       0.43915913
H       -0.12888619       0.85446095       1.37456369
H        0.67398447       0.21783850      -0.66809595
H        1.40039361      -0.60689795       0.48523784
H        1.88804388      -0.14334986       1.26025009
H        0.37146232      -0.05724159       1.56150770
H        0.04840329       1.61216402       0.05424237
H        0.49051502       1.64885998       1.57102275
H        1.58950996      -0.10791823      -0.32920378
H        1.25947094       0.22590503       1.84316254
H        0.68038189       1.24631190      -0.66692275
H        1.39188063       1.24994874       1.85691404
H        0.65718734       2.08863640       0.71845144
H        2.13232851       1.52768898       1.12293541
H        2.47681952       0.63300890       0.75660563
H        1.64671016       1.99968135       0.46105024
H        2.23281336       0.65173483      -0.29422152
H        1.63387096       1.47592545      -0.36449909
