20
Properties=species:S:1:pos:R:3 pbc="F F F"
H        0.00000000       0.00000000       0.00000000
H        0.63883960       0.60990006      -0.40983751
H        1.24528956      -0.06034589      -0.89595765
H       -0.86223215       0.31530851      -0.32434118
H        0.21343186       1.28014600      -1.06031621
H        0.15076923      -0.92909771      -0.24921276
H        1.13112438       0.22280073      -1.82054138
H        0.91038728      -0.94599670      -0.85810989
H       -0.65661621      -1.22754955      -0.80812156
H        0.50747669       1.05053246      -2.01642227
H        0.79109007      -0.55180138      -2.30265045
H       -1.25516772      -0.47909051      -0.84188890
H       -0.04626709      -0.23649287      -2.68667459
H        0.63653588      -1.22914338      -1.74855590
H       -1.37046838      -0.22844693      -1.77566850
H       -0.32436711      -1.38062418      -1.79074466
H       -0.99869800       0.72721839      -1.81826508
H       -0.72711611      -0.87936044      -2.26656771
H       -0.25850445       0.76738584      -2.54666924
H       -0.68154740       1.07661426      -0.84797370
