21
Properties=species:S:1:pos:R:3 pbc="F F F"
H        0.00000000       0.00000000       0.00000000
H        0.68725604      -0.43977645       0.53135377
H        0.65224677       0.52945983       0.61747235
H        0.77856642       0.00000000       1.39525199
H       -0.33944410       0.79365170       0.60876983
H       -0.83536839       0.36216211       1.39693213
H        0.08581358       0.67747062       1.38884819
H       -0.27744508      -0.77212864       0.42082036
H       -0.97648716      -0.01629210       0.51097566
H       -0.75905025      -0.59734529       1.18622553
H       -0.85610199      -0.11800810       0.44858027
H        0.25399160      -0.87668937       1.29747224
H       -0.08064765      -0.08439321       1.84546292
H        0.28640914       0.71391648       0.42228794
H       -0.11184639      -1.14901221       0.83249021
H       -0.11480069      -0.85578120       0.35251606
H        0.09401323       0.79229617       1.34124744
H       -0.36738798       1.29872477       0.35161170
H       -0.34181899       1.29872477       0.37651625
H       -0.29909292       1.31558979       0.35363483
H        0.43861890       0.35382652       1.30277467
