12
Properties=species:S:1:pos:R:3 pbc="F F F"
H        0.00000000       0.00000000       0.00000000
H        0.50912565      -0.18477097       0.80914259
H       -0.09829390       0.11368084       1.58069420
H       -0.43331769      -0.35598019       0.79632282
H       -0.85522139       0.35309973       0.27934712
H        0.75970131       0.58582085       0.36468035
H        0.73249853       0.65279102       1.35861349
H        0.30630353       1.38021994       0.83017415
H       -0.89119065       0.40651566       1.30364060
H       -0.23934576       1.04786777       1.63337564
H       -0.70654011       1.22055101       0.78570497
H       -0.10651284       1.00271249       0.05046725
