12
Properties=species:S:1:pos:R:3 pbc="F F F"
H        0.00000000       0.00000000       0.00000000
H       -0.33764970       0.29845181       0.92208624
H       -0.87696004      -0.22924539       0.30666691
H       -1.36221921       0.35186774       0.94906551
H       -0.76066279      -0.01140690      -0.63518351
H       -1.53702450       0.17336407      -0.07734567
H       -1.48734200       1.08002102       0.27417359
H       -1.20041955       0.85343748      -0.71715331
H       -0.19813621       0.78320324      -0.62037086
H        0.06680420       0.96797419       0.29817539
H       -0.69024301       1.46333754      -0.15518999
H       -0.72284102       1.18581271       0.82454753
