21
Properties=species:S:1:pos:R:3 pbc="F F F"
H        0.00000000       0.00000000       0.00000000
H        0.75529516      -0.29845181       0.62751859
H        0.90824926      -0.24777517      -0.33274066
H        1.32632828      -0.99526858       0.13589722
H        0.12578517      -0.59486568      -0.79678702
H       -0.60220212      -0.78962427      -0.10006076
H        0.95175493      -1.15443206      -0.68507773
H       -0.25375924      -1.56422639       0.37600654
H        0.68036366      -1.22488213       0.89965838
H       -0.16273585      -0.60856110       0.73896992
H        0.78875148      -1.73762286       0.07740456
H       -0.03536418      -1.58424854      -0.57661331
H        0.53672826      -1.21713591       0.82624936
H        0.90062594       0.88175344       0.28726429
H        1.48615861       1.59083343      -0.03276408
H        1.46273303       0.65213990       1.11469221
H        0.58984673       1.11136699       1.23806274
H        1.48436832       1.40580058       1.73079967
H        1.97387528       0.83717275       0.34431535
H        2.34474301       1.17618704       1.22054791
H        0.60316718       1.72126698       0.47917837
