12
Properties=species:S:1:pos:R:3 pbc="F F F"
H        0.00000000       0.00000000       0.00000000
H       -0.67230010      -0.60990006       0.35227177
H       -0.84007162       0.40247959       0.36851716
H       -0.36418408      -0.87409192       1.29492283
H       -1.04669213      -0.14635196       1.18790185
H       -0.63478643       0.70093143       1.32878184
H        0.27667314      -0.82341528       0.56362611
H       -0.34590292      -0.06195875       1.85859799
H        0.31293535       0.51616049       1.45425689
H        0.67420423       0.05643237       0.68971336
H        0.46925920      -0.50810677       1.46448803
H        0.06234499       0.83756196       0.58985323
