21
Properties=species:S:1:pos:R:3 pbc="F F F"
H        0.00000000       0.00000000       0.00000000
H        0.88791460       0.34709048      -0.19798161
H        0.73623067      -0.09268597       0.65738350
H        0.73623067       0.65472257       1.36073589
H        1.32733142       0.77858007       0.62302607
H       -0.18018878       0.13692757       1.05835330
H        0.91029358       1.30755329      -0.03964297
H       -0.56464380       0.79439902       0.32160750
H        0.02617383       1.54805970       0.14556493
H        0.00432163       1.18045926       1.17034698
H        0.82059979       1.49150229       0.91164821
H        0.12247288       0.81909829      -0.39709330
H        0.81451428       1.49464381       0.80053830
H        1.27904058       0.85841149      -0.29328871
H        0.05320272       1.10786843       2.56233549
H       -0.61410886       1.12659431       3.40996265
H        0.43122953       2.01946115       2.28052282
H       -0.68391860       1.74374282       2.58174562
H        0.05320272       1.10786843       2.56233549
H        0.35530248       1.15854502       3.48658037
H        0.92376471       1.71476626       2.83789515
