21
Properties=species:S:1:pos:R:3 pbc="F F F"
H        0.00000000       0.00000000       0.00000000
H        0.24483983      -0.86484438      -0.37437752
H        0.05393993       0.05341591      -1.02350438
H        0.66390419      -0.91826028       0.56095982
H        1.02945840      -1.79494965       0.17223144
H       -0.59782445      -1.45066524      -0.38177228
H       -0.29968059      -0.95379937       0.49101749
H       -0.72947067       0.63923675      -0.71301192
H       -0.71250850       0.75724483      -1.67936969
H        0.16908532      -1.67786193       1.14601266
H       -0.62995934      -1.91421330       0.53333116
H        0.74322253      -0.58319080       0.23573221
H       -1.47363663       0.34078494      -1.35368919
H        0.48443371      -2.19386077      -0.60051817
H       -0.04898993      -0.76468015      -0.61306298
H        1.99666786      -1.77805066       0.06141078
H       -0.57097977       1.52861333      -1.01733935
H        2.16215277      -1.22182941      -0.78508586
H        0.82483202      -0.43148959       0.43219534
H        0.27778685      -2.37776136       0.65351361
H        1.35211587      -1.52740705      -0.62400246
