21
Properties=species:S:1:pos:R:3 pbc="F F F"
H        0.00000000       0.00000000       0.00000000
H        0.12256700       0.83228827       0.37498182
H       -0.10708134       0.12438690       1.01310670
H       -0.93011469      -0.19475858      -0.38765916
H       -0.74834859      -0.49032766       0.49907726
H       -0.50384319       0.91668147       1.11562276
H       -1.56486392       0.12438691       0.40552264
H       -1.25522172       0.84693480      -0.25430310
H       -1.04984236       0.14554673       1.17200089
H       -0.73037362       1.38850951       0.24678616
H       -0.34003431       0.77460212      -0.48210910
H       -1.43204665       1.01817775       0.76823264
H       -0.90112406      -0.08304030      -0.42777854
H       -2.15292335       0.52491391       1.41722536
H       -2.24508190       1.49415016       1.42942679
H       -2.41221857       0.93837136       2.21124268
H       -3.07027841       1.75834203       1.97949708
H       -3.42215562       0.81398445       2.34495473
H       -3.87182307       1.25376093       1.60168040
H       -3.71696782       0.28628725       1.58161831
H       -3.16101909       1.68890870       1.00936484
