12
Properties=species:S:1:pos:R:3 pbc="F F F"
H        0.00000000       0.00000000       0.00000000
H        0.75986940       0.40936196      -0.45064643
H        0.32778373       0.87291002       0.35666326
H        0.01278019       0.21182740       0.99838245
H        1.54127073      -0.06029907      -0.10875243
H        0.86402798      -0.25172070       1.33576107
H        1.29716909       0.75645244       0.28345039
H        0.39313316      -0.59881115       0.55739921
H        0.86442959       0.67815143       1.20954323
H        0.73795170      -0.55577880      -0.30756807
H        1.60024464       0.02464122       0.84971762
H        1.31778562      -0.68321025       0.52259153
