21
Properties=species:S:1:pos:R:3 pbc="F F F"
H        0.00000000       0.00000000       0.00000000
H        0.65604281      -0.46966103       0.54505712
H        0.02899140      -0.80201322       1.28645611
H        0.34807751      -0.72030461      -0.34398508
H       -0.57534981      -0.63587439      -0.46119109
H       -0.23657581      -1.57797813      -0.23536667
H       -0.37656346      -1.80759168       0.75509024
H       -0.15311354      -0.03817144       1.00593305
H       -1.07306445      -1.22169518       0.21882203
H       -0.81920415      -0.97002971       1.14991045
H       -0.90998673      -0.12256465       0.39923573
H       -0.81636035      -0.80953991       1.14164686
H        0.45407888      -1.39320719       0.42563006
H        0.13731652      -1.07789874       1.29067528
H       -0.79381883       0.51516944       0.80198896
H       -1.06224966       1.66700125       0.74213588
H       -0.34254682       1.08381045       0.44217369
H       -0.72689295       0.37088823       0.00358754
H       -0.03406861       0.70535624       1.28459549
H        0.00659173       1.67722976       1.24135745
H       -0.28090635       1.17825007       2.02648497
