12
Properties=species:S:1:pos:R:3 pbc="F F F"
H        0.00000000       0.00000000       0.00000000
H       -0.56912082      -0.52595156       0.67290437
H       -0.97797602       0.26419187       0.16458869
H        0.61332637       0.61471456       0.54706556
H        0.43392009      -0.32738912       0.91254866
H       -0.91317689       1.01785254       0.77766091
H        0.43737942       0.41995597       1.53925288
H       -0.21781401       0.94706190       0.06075986
H       -0.26856297      -0.27671248       1.58486581
H       -1.05817151       0.13264948       1.18863094
H        0.07984602       1.27579713       1.02291155
H       -0.49044406       0.67059958       1.69540119
