21
Properties=species:S:1:pos:R:3 pbc="F F F"
H        0.00000000       0.00000000       0.00000000
H       -0.30729049       0.46966103      -0.79564559
H       -0.85757136      -0.16621336      -0.30481410
H       -0.84048581      -0.14931436      -1.27820170
H       -0.35279155      -1.00377536       0.00665197
H        0.08830938       0.03817144      -1.63864112
H        0.68539572      -0.69363976      -1.40199542
H       -0.23304278      -0.91147828      -1.64090562
H        0.63932478      -0.74740851      -0.29320353
H        0.72925889      -0.72959608      -1.31541610
H        0.64718288      -0.29845181      -0.73851514
H       -0.84767818      -1.02385581      -0.86844128
H        0.12922433      -1.43526495      -0.79009223
H        0.72498935       0.15590400      -0.80470449
H       -0.56867683      -1.45125043      -1.39093852
H       -0.76536036      -0.28008008      -0.20984602
H       -0.56867683      -1.41927946      -1.39093852
H        1.08042169      -1.45673120       0.00018686
H        1.08042169      -1.45673120       0.00018686
H        1.08042169      -1.45673120       0.00018686
H        1.08042169      -1.45673120       0.00018686
