21
Properties=species:S:1:pos:R:3 pbc="F F F"
H        0.00000000       0.00000000       0.00000000
H        0.49089283       0.77460212       0.32722577
H       -0.00555152       1.18396401       1.05799711
H       -0.35933188       1.48241580       0.14197862
H       -0.13878807       0.26419187       0.98196965
H       -0.75509644       0.37845421      -0.48442006
H       -0.99926561       0.09351680       0.39604315
H       -1.12951887       1.46551681       0.73745090
H       -0.66751719       1.40008152      -0.52836835
H       -0.95113337       0.78505284       1.04969919
H        0.21199462       0.64485383       0.30135173
H       -1.43115985       0.61671770       0.36783797
H       -0.21309942       1.23590326       1.13842070
H       -1.35021400       0.84811521       0.12657446
H       -0.74252260       1.25433016      -1.20076776
H       -1.16561913       0.44066936      -0.87364948
H       -0.48434055       0.97118354      -0.30565274
H       -0.64816451       1.46039355      -0.30803472
H       -1.46332407       1.55800962       1.41747236
H       -1.34891748      -0.43984455      -1.46965635
H       -1.22658646       1.21091914       0.53909642
