12
Properties=species:S:1:pos:R:3 pbc="F F F"
H        0.00000000       0.00000000       0.00000000
H       -0.92830116      -0.43148959      -0.07346868
H       -0.19954480      -0.73181123       0.61048764
H       -0.80254173      -0.98726839      -0.86299723
H       -0.36038721      -0.22961354      -0.93312514
H       -0.69978040      -1.34171128       0.03965735
H        0.58191693      -0.38109434      -0.74031061
H        0.69798446      -0.68113458       0.23640987
H       -0.10021091      -1.68880177      -0.64452499
H        0.22850880      -1.50403082       0.25317425
H        0.71667463      -1.33543169      -0.60195768
H        0.04677546      -1.07791114      -1.27077651
