12
Properties=species:S:1:pos:R:3 pbc="F F F"
H        0.00000000       0.00000000       0.00000000
H        0.05321160       0.83173102       0.50344110
H        0.24694695       0.84879911      -0.40818894
H       -0.32461205       0.26419187      -0.93709844
H       -0.91596991       1.16408324       0.56305057
H       -0.34496719       1.57134700       0.01711810
H       -0.75658119       0.15966894       0.67484415
H       -0.92520201      -0.18477097      -0.24066958
H       -0.48974663       1.27657151      -0.90330857
H       -1.29528844       0.59654403      -0.91153830
H       -1.53880262       0.54936868       0.02683300
H       -1.27554011       1.39115417      -0.34916335
