13
Properties=species:S:1:pos:R:3 pbc="F F F"
H        0.00000000       0.00000000       0.00000000
H       -0.61304885      -0.15966894      -0.80746567
H       -0.43769056       0.61471456       0.69561261
H       -1.57620525      -0.24862394      -0.46433198
H       -1.21909189       0.14505354       1.03750658
H       -0.58898729       0.76619536      -0.25424194
H       -0.68477291      -0.61447603      -0.11102688
H       -0.39066386      -0.44076732       0.88308907
H       -1.35677826       0.91316640       0.34988436
H       -1.54245043      -0.40010473       0.49690419
H       -1.27857840      -0.78785777       0.68510729
H       -1.81845045       0.33456686       0.27679330
H       -1.44527960       0.48656946      -0.57531244
