21
Properties=species:S:1:pos:R:3 pbc="F F F"
H        0.00000000       0.00000000       0.00000000
H        0.14728610      -1.02954066      -0.28719354
H        0.86169046       0.55622131      -0.03783271
H       -0.20787729      -0.30699277      -0.92367399
H        0.47703505      -1.00380945      -1.23778462
H        0.24342066       0.64517629      -0.85217512
H        1.35749197      -0.47785789      -1.27644134
H        0.53951848       0.03046173      -1.61884069
H        1.61589837      -0.14839625      -0.35217613
H        0.92842311      -0.46370476       0.26102799
H        1.13920069      -1.08295655      -0.54521692
H        0.23691028      -1.01992607      -0.25448310
H        0.75270671      -0.60867834       0.31520295
H        1.03728843      -0.85390729      -2.33022404
H        1.03728843      -0.85390729      -2.33022404
H        1.23217857       0.50012279      -1.12114465
H        1.03728843      -0.85390729      -2.33022404
H        1.03728843      -0.85390729      -2.33022404
H        0.74863422      -1.15235913      -3.26880217
H        0.78460038      -1.18625951      -3.26778173
H        1.03728843      -0.85390729      -2.33022404
