21
Properties=species:S:1:pos:R:3 pbc="F F F"
H        0.00000000       0.00000000       0.00000000
H        0.02715597      -1.02162731       0.09414954
H        0.81740957      -0.46966103      -0.24355888
H       -0.87923235      -0.72317553      -0.28362083
H        0.83449513      -0.48656002      -1.21694648
H       -0.56480575      -1.57197464      -0.64242017
H        0.42512393       0.28314662      -0.82895023
H       -0.06995890      -1.38720369      -1.46037316
H       -0.92273939      -0.88648045      -1.23406374
H        0.03146744      -0.07719806      -1.58522654
H       -0.13385338      -0.39143237      -1.66523671
H       -0.49101692       0.19475858      -0.87994057
H        0.59887969      -1.25643361      -0.66967094
H       -0.46656108      -1.42429066      -0.64161545
H       -0.32992554      -1.90233874      -0.64521337
H       -0.79746497      -0.67008579      -1.20581579
H        0.58275998      -0.56313783      -1.87911463
H        0.57078791      -0.14837253      -1.46599615
H        0.57059050      -0.14837253      -1.44350600
H        0.57059050      -0.14837253      -1.44350600
H        0.56960404      -0.14837253      -1.42103672
