21
Properties=species:S:1:pos:R:3 pbc="F F F"
H        0.00000000       0.00000000       0.00000000
H       -0.04850490       0.68549418       0.68978679
H       -0.30796531       0.25064358      -0.88904220
H       -0.47521615       0.89351118      -0.10669172
H        0.06150055       1.32500076      -0.86766207
H        0.75156742      -0.26419187      -0.64704937
H        0.12442986       1.70345497       0.02725315
H        0.62058669       0.02441156       0.43809822
H        0.91945392       0.94968605       0.47395742
H        1.21847367       0.42332274      -0.29451689
H        0.94244438       1.48466969      -0.36589754
H        0.69203138       0.57480353      -1.09948456
H        0.86689591       0.73100901      -0.97773814
H        0.70337999       1.23990691      -0.68215775
H        0.55544996       0.77659512      -0.71236992
H        0.06047159       0.13985050       0.19842321
H       -0.56281590      -0.30512175      -1.34575438
H       -0.92953718       0.49153367      -2.06082535
H       -0.90421629       0.49153367      -2.07325459
H       -0.56281590      -0.30512175      -1.34575438
H        1.64910650       2.17381525       0.00586036
