21
Properties=species:S:1:pos:R:3 pbc="F F F"
H        0.00000000       0.00000000       0.00000000
H       -0.78841746      -0.36585209      -0.54577839
H       -0.60871309       0.73181123      -0.20489430
H       -0.39058477       0.67024595       0.67196560
H       -1.28308153       0.84981930       0.48746544
H       -0.53486896      -1.00172651       0.14663607
H       -1.40461087      -0.83551311       0.04395461
H       -1.71657646      -0.07758760       0.56042057
H       -0.68465590       0.51302409      -0.29053721
H       -0.08375514      -1.18649745       0.98949844
H       -0.09707552      -1.79639745       0.23061407
H       -0.14171350      -2.19887710       1.14777672
H       -1.36279631       0.22086421      -0.35559791
H       -0.98923934      -0.83940697       1.07717681
H       -1.01608229      -0.77440435       0.83805037
H       -0.95705748      -2.44263577       0.31388649
H       -1.22852957      -1.74581909      -0.38901696
H       -2.35672832       0.33601287       0.59979308
H       -1.81874800      -1.88641453       0.27605373
H       -2.74594712       0.80567390      -0.15914571
H       -0.26899326      -1.40426695       0.59963858
