21
Properties=species:S:1:pos:R:3 pbc="F F F"
H        0.00000000       0.00000000       0.00000000
H        0.38154608      -0.49897972      -0.74397767
H       -0.09798389      -1.02162731      -0.00085985
H        0.08362525      -0.58185089       0.84865510
H        1.07991529      -0.63526678       1.08923078
H        0.57727104      -1.39551163       0.64291036
H        0.89941758       0.21783850      -0.30274606
H        1.47008598      -1.11236501       0.37688339
H        0.66262484       0.17839402       0.75473750
H        0.71053731      -1.41057241      -0.40620929
H        1.28149605      -0.63597029      -0.55473083
H        1.53946102      -0.14312875       0.43876353
H        0.79069340      -1.37655687      -0.34557915
H        1.89498484       0.30114517       1.16302955
H        2.58389544       0.21675196       0.48013788
H        1.05611372       0.48591614       0.70453662
H        2.77738833       1.01136208       1.00854683
H        2.93822145       1.10031712      -0.00117767
H        2.35548472       1.72044206       0.49157113
H        2.14971900       1.37335157      -0.39457196
H        2.23833132       0.40411532      -0.36646631
