21
Properties=species:S:1:pos:R:3 pbc="F F F"
H        0.00000000       0.00000000       0.00000000
H        0.59380746      -0.49897972      -0.58861941
H        0.57802963      -0.00393164      -1.48750877
H       -0.23126470      -0.08895500      -0.99595565
H       -0.15058565       0.71861625      -1.46832263
H        1.00773382       0.17126623       0.06922495
H       -0.48533839       0.73551524      -0.55414760
H        0.26995677       1.03396702       0.07337099
H        1.41080427       0.18907869      -0.87445980
H        0.23207885       1.40576124      -0.85315716
H        1.06463408       1.15197515      -0.47674072
H        0.87845486       0.93610024      -1.40964377
H        0.67864490      -0.48116726      -0.61362100
H        0.94692004       0.26259851       0.06743022
H        1.21233714       0.09842025      -1.62894273
H        1.20698285       0.09842025      -1.65111625
H        0.75223482      -0.90555573      -2.05394840
H        0.75223482      -0.90555573      -2.05394840
H        0.46405351       1.05357730      -1.30636883
H        1.38673306       0.20987147      -0.22770908
H        0.80261457      -0.94449276      -1.96608341
