21
Properties=species:S:1:pos:R:3 pbc="F F F"
H        0.00000000       0.00000000       0.00000000
H        0.63772744       0.77136850       0.22719663
H       -0.29831412       0.77136850       0.60771978
H        1.22519732       0.42427802       0.92179608
H       -0.56624675      -0.19475858       0.83352119
H        0.48197472       1.00746882       1.15752828
H        0.93980360      -0.30827296       0.18284625
H       -0.25815850       0.50205815       1.52116346
H        0.69395506       0.25380814       1.73642445
H        0.17580914      -0.86449426       0.58316398
H        0.96038800      -0.60030240       1.18976307
H        0.05534160      -0.58340341       1.54846394
H        0.99600470      -0.24635184       0.22405253
H       -0.16452700       0.65973926      -0.21128312
H       -0.21573204       0.40597939       1.51740491
H        0.21532279       1.88634503       1.08816504
H        0.21532279       1.88634503       1.08816504
H        0.33463198       1.06987262       0.47786832
H       -0.39600456       1.17726517       1.35564494
H       -0.29917324       1.25047064       1.61638713
H        1.36389160       2.42845511       0.51179945
