21
Properties=species:S:1:pos:R:3 pbc="F F F"
H        0.00000000       0.00000000       0.00000000
H        0.83968246      -0.37845421      -0.31585881
H        0.26214316      -0.96807545       0.21779525
H       -0.65807551      -0.77136850       0.15890630
H        0.71658230      -1.38437724      -0.47799784
H        0.23393363       0.09120682      -0.91631508
H       -0.88239080      -1.03556037      -0.80712128
H       -0.72168726      -0.08122301      -0.69999737
H       -0.22555470      -1.66604853      -0.09760351
H       -0.23721248      -0.56987584      -1.45395064
H       -0.07260059      -1.61537194      -1.05786276
H       -0.38865429      -0.73552430      -1.32996392
H        0.11469795      -0.61028254      -1.54282188
H        0.64773381      -0.73645139      -1.14249754
H       -0.67438161      -0.12546337      -0.77007782
H        0.28429630       0.66813922      -0.20010948
H       -0.24766174      -1.51318264      -0.02931535
H        0.64044333       1.65855598       0.03729568
H        0.64855552       1.65855598       0.02465069
H       -0.14503849       0.81143188       0.60206050
H       -0.34260979       1.32242918       1.20651042
