21
Properties=species:S:1:pos:R:3 pbc="F F F"
H        0.00000000       0.00000000       0.00000000
H        0.36038706      -0.22961354      -0.93312520
H       -0.46355900      -0.74740851      -0.52897775
H       -0.39526969      -0.76430750       0.44216174
H        0.42628849      -0.29464647       0.67133760
H        0.35549748      -1.31627381       0.73908871
H        0.88389182       0.05353308      -0.16252047
H        1.14858365      -0.75731075      -0.71325558
H        0.71283019      -1.66336429      -0.09751302
H        0.89621925      -1.57097149      -0.24173751
H        1.07085431      -1.29663444      -0.13746691
H        1.06999230      -1.25737929      -0.13641077
H        0.92362934      -1.21102333       0.09078050
H        0.46121439       0.35279310      -2.07915258
H        0.88892984      -0.94363737       0.49730831
H        0.02214211      -0.44181705      -2.43110585
H        0.26314422      -1.30318737      -0.86225426
H        1.25842834      -1.66962695      -0.46778923
H        0.03421164      -0.72967446      -1.08918667
H        0.03421164      -0.72967446      -1.08918667
H        0.03421164      -0.72967446      -1.08918667
