21
Properties=species:S:1:pos:R:3 pbc="F F F"
H        0.00000000       0.00000000       0.00000000
H        0.46564069       0.84879911      -0.10382564
H        0.00000000       0.58319080       0.77971113
H        0.64274400      -0.70907992       0.17929521
H        1.47754788       0.68913019      -0.04158811
H        0.20046240      -0.36585209       0.93770516
H        1.03188729       1.04355764       0.72969568
H        0.88261753      -0.01781246      -0.52344322
H        1.70937419       0.29614913       0.91868252
H        1.11072147      -0.44488806       1.05366564
H        0.79828751       0.30439386       1.43439364
H        0.13507313       0.66510344       0.75331086
H        1.58541453      -0.31016874       0.10468924
H       -1.14515924      -0.79611558      -0.01004928
H       -0.92892736      -0.98088658      -0.94126582
H       -0.33720028      -0.46376339       0.52853060
H       -0.66863191      -0.08620650      -1.37151897
H       -1.02119708       0.22150093       0.03908116
H       -1.35532439      -0.11604220      -0.80602300
H        0.08391625      -0.82121766      -0.98573494
H       -0.29650360      -1.23153019      -0.24464625
