21
Properties=species:S:1:pos:R:3 pbc="F F F"
H        0.00000000       0.00000000       0.00000000
H        0.54069358       0.79439902       0.36042264
H        0.20680895       1.12675118       1.27222693
H       -0.73315668       1.37739480       1.23095751
H       -0.14838099       1.54180753       0.50142133
H       -0.18579292       0.94210368      -0.36227816
H       -0.48178431       0.51255041       1.60098052
H       -0.98345470       1.22591400       0.30226743
H       -0.62619561      -0.28314662       0.68975931
H        0.25253981       0.12849689       1.03830206
H       -0.95461500       0.21583310      -0.07914954
H       -1.26556599       0.39061645       0.77002537
H       -0.50254130       0.30166143       1.45061660
H       -1.14797843      -0.61447299       0.26362711
H       -1.14797843      -0.61447299       0.26362711
H       -2.03029227      -0.85156822       0.38044235
H       -0.58522540       0.26830006       1.06214976
H       -1.67448306      -0.26837742      -0.31335095
H       -0.61030507       0.26830006       1.04310858
H       -0.64834958       0.26118124       1.06559193
H       -0.24618134       0.15763277       0.85603064
