21
Properties=species:S:1:pos:R:3 pbc="F F F"
H        0.00000000       0.00000000       0.00000000
H        0.19410905      -0.89379078       0.33394706
H       -0.56634277      -0.36585209       0.77377772
H       -0.16484448      -0.06740028       1.66990805
H        0.72485626       0.58319080       0.28728530
H        0.92062938      -0.87689179       0.98197764
H        1.03284144      -0.41334370       0.07321173
H        1.36554384      -0.00398174       0.89162040
H        0.01667345      -0.82621515       1.34024632
H        0.65260911       0.48882103       1.39475119
H       -0.20024025       0.60100323       0.73136079
H        0.76157820      -0.46631145       1.85947287
H        1.34403729      -0.15100294       1.14576221
H       -0.12049489       0.51842058       0.82837909
H       -0.43927431       0.35799721      -0.72609496
H       -0.05972412      -0.06972492      -0.39882511
H       -0.99349296       1.32460356      -0.52864927
H       -1.03171909       1.30360293      -0.53818583
H        1.15391564      -0.48861331       0.92985088
H       -0.99349296       1.32460356      -0.52864927
H       -0.97827780       1.32460356      -0.49025959
