21
Properties=species:S:1:pos:R:3 pbc="F F F"
H        0.00000000       0.00000000       0.00000000
H        0.47219095      -0.55577880       0.64514065
H        0.41022092      -0.14641684       1.52641439
H       -0.43960652      -0.28314662       0.82136166
H       -0.51950133       0.69617254       0.52492487
H        0.07561624       1.16583359       1.13591957
H        1.33985078      -0.06202363       1.24941790
H       -0.34972346       0.44866461       1.45731318
H        0.21477446      -0.26624763       1.54216731
H        0.43589413       1.08078623       0.20333651
H        0.57753164       0.49558765       1.72936320
H        0.97813922      -0.01781246       0.31024212
H        0.97813922       0.77658659       0.96005291
H        0.44687152       0.95834106       0.21451229
H        1.04195201      -0.36490294       1.21772051
H        0.28352642      -0.65368682       0.55770457
H       -0.06687936       2.07437944       1.18668497
H        0.31448963       1.86831605       0.37401444
H        0.04735237       1.51078200       0.99786657
H       -1.46481991       0.96036440       0.82475698
H       -1.47299039       0.92578608       0.82734847
