12
Properties=species:S:1:pos:R:3 pbc="F F F"
H        0.00000000       0.00000000       0.00000000
H       -0.72715116       0.63587439       0.12237607
H       -0.89285505      -0.19585663      -0.35598224
H        0.62704158       0.26419187      -0.76833934
H       -0.06949079      -0.51116514      -0.76915634
H       -0.56545901       1.29695702      -0.57396173
H        0.20220214       0.88759506      -0.13672027
H        0.07507814       0.18565160      -1.50866306
H        0.27647865       1.06734347      -1.11409354
H       -0.61830139       0.88257253      -1.45067811
H       -1.22588825       0.63192892      -0.73229313
H       -0.82458723      -0.13271093      -1.25357640
