21
Properties=species:S:1:pos:R:3 pbc="F F F"
H        0.00000000       0.00000000       0.00000000
H       -0.21671417       0.94706190      -0.06457304
H        0.38570943      -0.29845181      -0.90303850
H        0.74498427       1.43438172      -0.10679663
H        0.13193542       1.27471280      -0.91426229
H        0.70864064       0.64286757       0.37131339
H       -0.33976528       0.42409608      -0.83279049
H        0.47422621       0.49615833      -1.45875454
H        1.02775073      -0.11079311      -0.15615714
H        1.53438973       0.82976800      -0.30711746
H        1.31318629       0.22155908      -1.08426952
H        1.13878989       1.26125765      -1.15011299
H        1.13789678       1.20476818      -1.02669942
H       -0.02036566      -0.12541765      -0.02713189
H        0.95563120       0.79664761       0.25560233
H       -0.28128186      -0.37460455      -1.90681446
H       -0.72019762      -0.52608538      -2.76265764
H        0.01469088      -1.07142127      -2.59975791
H       -0.80780762      -1.65724206      -2.78315353
H       -1.23804259      -0.47540873      -1.93965733
H       -1.57368016      -1.36919951      -1.74848628
