12
Properties=species:S:1:pos:R:3 pbc="F F F"
H        0.00000000       0.00000000       0.00000000
H        0.30968034       0.89379078      -0.23086154
H       -0.55311161       0.73412186       0.30151027
H        0.51766723      -0.31530851       0.76201189
H       -0.54509139      -0.08439321       0.80238026
H        1.00110745       0.24047029       0.12525743
H        1.06931448       0.29114693       1.09522676
H        0.15534419       0.13147800       1.53396130
H       -0.48357260       0.84301370       1.23764539
H        0.09987551       1.45001209       0.60575289
H        1.03781390       1.19936848       0.53152144
H        0.45900047       1.06251550       1.38819671
