21
Properties=species:S:1:pos:R:3 pbc="F F F"
H        0.00000000       0.00000000       0.00000000
H        0.07742673      -0.40936196      -0.88005048
H        0.42101255       0.64623839      -0.75448769
H       -0.27810636       0.91843063      -0.16493313
H       -0.32741776       1.11589944      -1.16354930
H       -0.98368871       0.53270864      -1.58456945
H       -0.70928496      -0.58582085      -0.45503044
H       -0.95418888       0.18477097       0.05868737
H       -0.02709097       0.34778658      -1.62824607
H       -0.79245704      -0.36798236      -1.40038204
H        0.21068954      -0.33308077      -0.97814405
H       -1.15296888       0.81011939      -0.58765912
H       -1.38354099      -0.06587261      -0.77850753
H        0.07103485      -0.01997523      -0.20800059
H       -0.86529970       1.54838061       0.93218011
H       -0.86529970       1.54838061       0.93218011
H       -0.86529970       1.54838061       0.93218011
H       -0.86529970       1.54838061       0.93218011
H       -0.86529970       1.54838061       0.93218011
H       -0.86529970       1.54838061       0.93218011
H       -0.86529970       1.54838061       0.93218011
