9
Properties=species:S:1:pos:R:3 pbc="F F F"
H        0.00000000       0.00000000       0.00000000
H        0.63772744       0.77136850       0.22719663
H       -0.45194918       0.85764241      -0.33692047
H        1.07772148       0.03955728      -0.24069068
H       -0.47134766       0.91159266       0.01241166
H        0.62051064       0.88835639      -0.37692308
H        1.85960627       0.71539241       0.06919697
H        1.29591393       1.57303476       0.06425032
H        0.95076257       1.06248283       0.02929392
