21
Properties=species:S:1:pos:R:3 pbc="F F F"
H        0.00000000       0.00000000       0.00000000
H       -0.30820453      -0.91843063       0.09775501
H       -0.30461174      -0.96807545      -0.15285775
H       -0.07666522      -1.00592303       0.18858723
H       -0.01437328       0.60504943      -0.00721268
H       -0.04356947      -1.33960938       0.06924406
H        0.00897461       0.60413754       0.03578699
H        0.01511724      -1.20302451      -0.28684795
H        0.21974522      -1.15169930      -0.39380074
H        0.53223163      -0.98395395      -0.52758157
H        0.66695189      -0.83975357      -0.61625272
H        0.73065698      -0.77473789      -0.62904686
H        0.79240495      -0.70598930      -0.63517857
H        0.76962554      -0.70598930      -0.66259629
H        0.80488628      -0.63383907      -0.69295335
H        0.84537429      -0.59659642      -0.67763793
H        0.84537429      -0.59659642      -0.67763793
H        0.84537429      -0.59659642      -0.67763793
H        0.87562996      -0.52000028      -0.70189035
H        0.88471180      -0.55863494      -0.65953797
H        0.86102080      -0.55863494      -0.69017994
