21
Properties=species:S:1:pos:R:3 pbc="F F F"
H        0.00000000       0.00000000       0.00000000
H        0.49089283       0.77460212       0.32722577
H       -0.45369256       0.99244058       0.41869038
H        0.46550673       1.39135170       0.64065075
H       -0.67571247       0.77136850       0.04155969
H        0.73394406       0.63587439       0.07106809
H        0.35009301       0.78918093       0.06857155
H        1.41677523       0.17541744       0.23843625
H        0.57029158       1.23635697      -0.49098301
H        0.82002556       0.70880276       0.32500413
H       -0.83931243       0.04519808      -0.21832740
H        0.05269100       0.41782582      -0.26952782
H       -1.05514181      -0.51594532      -0.84578454
H       -1.03776252      -0.46870184      -0.89344442
H       -1.01710987      -0.42089361      -0.93979317
H       -0.68106651       0.31617773       0.17093888
H       -0.69482505       0.31617773       0.17625266
H       -0.38293487       0.14008047      -0.03744939
H       -2.16260624       0.06849129       0.00437663
H       -2.16260624       0.06849129       0.00437663
H       -2.16260624       0.06849129       0.00437663
