19
Properties=species:S:1:pos:R:3 pbc="F F F"
H        0.00000000       0.00000000       0.00000000
H        0.42017129      -0.49897972       0.72286665
H        0.57347733      -0.77460212       0.13847838
H        1.11859727      -1.04244351       0.83089662
H       -0.46078166       0.39891118      -0.82575667
H       -0.69402874       0.03305909       0.10433573
H       -1.20212996       0.41672364      -0.11624318
H        1.20578361      -0.16259587       1.23872936
H       -1.12900484      -0.60490370      -0.05101816
H       -0.90186274       0.33374161      -0.17516482
H       -0.68396842       0.09191304       0.55702209
H        0.55940759      -0.63225687       0.68224269
H        1.12125719       0.10396853       1.71538472
H        0.72505528      -0.28698277       2.13692307
H        0.80997765       0.03216271       0.31205219
H        1.04234576      -0.18861900       0.76691276
H        0.86962420       0.40983397       1.39741635
H        1.74682665      -0.11611760       1.48235619
H        1.47348571       0.18267825       1.72786152
