21
Properties=species:S:1:pos:R:3 pbc="F F F"
H        0.00000000       0.00000000       0.00000000
H        0.35866648      -0.83756196      -0.47241095
H        1.01793551      -1.06717551      -1.22471786
H       -0.46163812      -0.66108263       0.54582143
H        0.16435561       0.06909496      -0.76952612
H       -1.14473128      -0.50960183      -0.13130343
H        0.05592835      -0.94916743      -1.13156629
H       -0.48130709      -1.06582308       0.41988635
H       -1.82553113       0.04206508      -0.41505158
H       -1.34152532      -0.75254506      -0.70209503
H       -2.02045560      -0.70534343       0.26075083
H        0.19042289      -1.01649892      -0.71411461
H        0.46773297      -1.92481792      -1.34739864
H        0.75131655      -0.95674247      -1.15836382
H        0.98514241      -1.71875453      -2.08099461
H        0.38540328      -1.01322532      -0.88313091
H       -1.22486734       0.19910613      -0.21892953
H       -1.08158576       0.65211904      -0.17143500
H       -1.11952317       0.45522156      -0.09679943
H       -1.12943983       0.25089121      -0.03261143
H       -1.19312799       0.30245727      -0.17557329
