5
Properties=species:S:1:pos:R:3 pbc="F F F"
H        0.00000000       0.00000000       0.00000000
H       -0.27385142       0.28314662      -0.89044607
H       -0.33299938      -0.51146352      -0.33084166
H       -0.25052619      -0.92909771      -0.14857651
H       -1.02569485      -0.12621534      -0.42653325
