6
Properties=species:S:1:pos:R:3 pbc="F F F"
H        0.00000000       0.00000000       0.00000000
H        0.46564069       0.84879911      -0.10382564
H        0.00000000       0.79461014       0.56272155
H        0.91045415      -0.11800810       0.32435820
H        0.53245169       0.67024595      -0.56620622
H       -0.09366512      -0.17142400       0.52982140
