11
Properties=species:S:1:pos:R:3 pbc="F F F"
H        0.00000000       0.00000000       0.00000000
H        0.59380746      -0.49897972      -0.58861941
H       -0.10738236       0.08684114      -0.12121108
H       -0.36072075      -0.20052791      -0.35812831
H       -0.36447912      -0.10869658       0.26613897
H        0.92903507      -0.79093117      -0.99938726
H        0.01040274      -0.30252934      -0.13755840
H       -0.43510097      -0.13198979      -1.07390451
H       -0.34095716      -0.17854816      -1.07394075
H        0.37774366      -0.70529300      -0.52313673
H       -0.56610113       0.29934648       0.47313997
