11
Properties=species:S:1:pos:R:3 pbc="F F F"
H        0.00000000       0.00000000       0.00000000
H        0.58115071      -0.52769721      -0.57607329
H        0.91267163      -1.30229926      -0.08807081
H        0.74374664      -0.95918679       0.34082544
H        0.88931388      -1.05539441       0.18197155
H       -0.77728742      -0.49897972       0.30806559
H       -0.02181959      -1.10887980       0.38121784
H        0.88709491      -0.18153769      -0.87934446
H        0.55786073      -0.19669700      -1.01799881
H       -0.65072167      -0.19475858       0.76938570
H       -0.50062257      -0.83173102      -0.07524280
