5
Properties=species:S:1:pos:R:3 pbc="F F F"
H        0.00000000       0.00000000       0.00000000
H       -0.46163812      -0.66108263       0.54582143
H       -0.67660779      -0.31530851      -0.62517476
H       -0.38495097      -0.87984765      -0.16044234
H       -0.36997482      -1.10970759      -0.05226088
