7
Properties=species:S:1:pos:R:3 pbc="F F F"
H        0.00000000       0.00000000       0.00000000
H        0.45934626      -0.55622131       0.73002923
H       -0.36038721       0.22961354      -0.93312514
H        0.57396078       0.31400675      -0.67248619
H        0.87012684       0.01689900      -0.43664008
H       -0.15545163      -0.60689795      -0.02330762
H        0.01771252      -0.34270608       0.95318651
