5
Properties=species:S:1:pos:R:3 pbc="F F F"
H        0.00000000       0.00000000       0.00000000
H        0.87747955       0.49504808      -0.19565487
H        0.54558134      -0.25236043       0.42446446
H        0.64445871      -0.66108263       0.30936027
H        0.64281577      -0.44705561      -0.52836704
