7
Properties=species:S:1:pos:R:3 pbc="F F F"
H        0.00000000       0.00000000       0.00000000
H        0.21426670       0.05341591       1.00227761
H       -0.80130774       0.17780280       0.92190182
H       -0.50071633       0.66331595       1.25699711
H        0.44026834      -0.77460212       0.39270389
H       -0.31631285      -0.61493319       1.06754804
H       -0.70908284       0.34800744       0.35965383
