5
Properties=species:S:1:pos:R:3 pbc="F F F"
H        0.00000000       0.00000000       0.00000000
H        0.12256700       0.83228827       0.37498182
H       -0.15988305       0.46354809       0.90160102
H        0.84791625       0.55622131      -0.15805010
H        0.51264858       0.00000000       0.28019267
