5
Properties=species:S:1:pos:R:3 pbc="F F F"
H        0.00000000       0.00000000       0.00000000
H        0.83968246      -0.37845421      -0.31585881
H        0.46497226      -0.91159266       0.07825253
H       -0.04296533      -0.97931916       0.30399331
H        0.37947285      -1.29004693      -0.41847354
