5
Properties=species:S:1:pos:R:3 pbc="F F F"
H        0.00000000       0.00000000       0.00000000
H       -0.53245163       0.67024595      -0.56620628
H       -1.08326697      -0.14622647      -0.27759016
H       -0.47656798      -0.25885177      -0.85206532
H        0.25476462       0.29179174      -0.99646664
