6
Properties=species:S:1:pos:R:3 pbc="F F F"
H        0.00000000       0.00000000       0.00000000
H       -0.30729049       0.46966103      -0.79564559
H       -0.64934051      -0.26215020      -0.25203258
H       -0.24073040      -0.41363099      -1.12275195
H        0.21288115      -0.81837153      -0.22932826
H        0.46264097      -0.15966894      -0.90210479
