6
Properties=species:S:1:pos:R:3 pbc="F F F"
H        0.00000000       0.00000000       0.00000000
H        0.05321160       0.83173102       0.50344110
H        0.38108763       0.89468008      -0.32809103
H       -0.48570397       0.58582085      -0.68864322
H       -0.85291839       0.67206210       0.04873440
H       -0.45733568       1.45090139      -0.12563592
