21
Properties=species:S:1:pos:R:3 pbc="F F F"
H        0.00000000       0.00000000       0.00000000
H       -0.02074104      -0.97334045      -0.01546210
H        0.40421295      -1.20295405      -0.92100918
H       -0.44787788      -0.52769721      -0.68483716
H        0.17457899      -0.28452343      -1.14863682
H        0.75048202      -0.15148079      -0.60157388
H       -0.17808267       0.27169788      -0.36150813
H        0.40421295      -0.36539209      -0.32787025
H        0.34420863      -0.24861670      -0.73743182
H       -0.72192848      -1.18331468      -0.81196439
H        0.05513540      -0.77683604      -0.67018712
H       -0.72474480      -1.14405954      -0.97057641
H        0.37093148      -0.39431411      -0.60613006
H        0.03341207      -0.29189962      -0.42452601
H        0.04259250      -0.29189962      -0.36344469
H       -0.85406172       1.53342628      -0.14710398
H       -0.85406172       1.53342628      -0.14710398
H       -0.85406172       1.53342628      -0.14710398
H       -0.85406172       1.53342628      -0.14710398
H       -0.85406172       1.53342628      -0.14710398
H       -0.85406172       1.53342628      -0.14710398
