7
Properties=species:S:1:pos:R:3 pbc="F F F"
H        0.00000000       0.00000000       0.00000000
H       -0.77018702      -0.01689900       0.59547228
H       -0.34487537      -0.76430750       0.03528088
H       -1.10160959      -0.91157907       0.21727842
H       -0.90545744      -0.20249915      -0.42052317
H       -0.29076892      -0.85816318       0.84418201
H       -0.02805741      -0.55577880       0.79898912
