10
Properties=species:S:1:pos:R:3 pbc="F F F"
H        0.00000000       0.00000000       0.00000000
H        0.83968246      -0.37845421      -0.31585881
H        0.36374816      -0.95566529       0.08783479
H       -0.17513794      -0.85764241       0.53581733
H        1.94038832      -0.05464023      -1.19816625
H        1.89482450       0.13749111      -1.16164303
H        1.78678298       0.18411285      -1.25468469
H        0.60094339      -0.27445161       0.61096555
H        0.03838658      -0.87743390      -0.55461621
H       -0.47945839      -0.82675725       0.26838410
