21
Properties=species:S:1:pos:R:3 pbc="F F F"
H        0.00000000       0.00000000       0.00000000
H        0.12529835      -0.08895500      -1.01474690
H        0.22387058       0.82263768      -0.55365455
H       -0.75811756       0.32040697      -1.02249932
H       -0.69718140       0.76018345      -0.15592885
H       -0.45507735       1.00740862      -1.22667038
H       -0.77537459      -0.31530851      -0.49742922
H       -0.43437308       0.23280650      -0.63707405
H       -0.00582334       0.19093621      -0.79670817
H       -0.51796174       0.06532508      -1.94142807
H       -0.39087510       0.43378642      -1.22477078
H       -0.32621139       0.27532375      -1.17680740
H        1.06378984       1.15096653      -0.74093443
H        1.06378984       1.15096653      -0.74093443
H       -0.25260794       0.46011370      -0.64246923
H       -0.75420994       0.64179385      -0.64932454
H       -0.80940068       0.57120931      -0.64880252
H       -0.85291767       0.57120931      -0.59042835
H       -0.11916995      -1.14901757      -1.02343190
H       -0.11916995      -1.14901757      -1.02343190
H       -0.10111445      -1.14901757      -1.00007892
