21
Properties=species:S:1:pos:R:3 pbc="F F F"
H        0.00000000       0.00000000       0.00000000
H        0.30968034       0.89379078      -0.23086154
H       -0.59956104       0.66417724      -0.64785278
H       -0.82728422      -0.15148079      -0.49062732
H        0.15295412       0.05067664      -0.96025926
H       -0.22725695       0.06635770      -1.22586501
H       -0.04644978      -0.59575474      -0.69374311
H        0.25433671       0.65240216      -1.28100240
H        0.48473257       0.08012998      -0.73620677
H       -0.32453358       0.19697404      -0.63773137
H        0.68322724       1.94782853       0.68801957
H        0.63982612       1.87648106       0.77918732
H        0.62903130       1.91276860       0.74616158
H        0.67506981       1.87648106       0.76697892
H        0.66312253       1.91276860       0.73435235
H        0.68657672       1.83900952       0.79840314
H        0.72995746       1.91276860       0.70718241
H        0.67506981       1.87648106       0.76697892
H        0.69677842       1.91276860       0.72135389
H        0.69677842       1.91276860       0.72135389
H        0.66312253       1.91276860       0.73435235
