7
Properties=species:S:1:pos:R:3 pbc="F F F"
H        0.00000000       0.00000000       0.00000000
H       -0.27385142       0.28314662      -0.89044607
H       -0.33221543      -0.59670103      -0.47750220
H       -0.15961069      -0.96046287       0.00981685
H        0.46781760      -0.55110091      -0.61212969
H        0.61152083      -0.80898207      -0.56504893
H        0.58727396       0.20787701      -0.80706298
