9
Properties=species:S:1:pos:R:3 pbc="F F F"
H        0.00000000       0.00000000       0.00000000
H       -0.19310522      -0.77460212      -0.55746114
H       -0.57758403      -0.55577880       0.55278158
H       -0.51940596      -1.46009636       0.05219972
H       -0.85499638      -0.40936196      -0.22240722
H        0.03844762      -0.66548622       0.12605760
H       -1.27471733      -0.93239915      -0.26260382
H       -0.45299953      -0.87898326      -0.87518078
H       -0.97784877      -0.72240049       0.46765774
