7
Properties=species:S:1:pos:R:3 pbc="F F F"
H        0.00000000       0.00000000       0.00000000
H        0.36038706      -0.22961354      -0.93312520
H       -0.41085649      -0.79439902      -0.50343919
H       -0.21100059      -0.60962808       0.43142885
H        0.63931787      -0.29431957       0.07702786
H        0.26707226      -1.14311862      -0.22135818
H        0.39385176      -1.07841265      -0.45722485
