21
Properties=species:S:1:pos:R:3 pbc="F F F"
H        0.00000000       0.00000000       0.00000000
H       -0.06381270       0.34709048       0.90747839
H        0.75164497      -0.06227148       0.56760693
H        0.78819561       0.81757617       0.15216374
H        0.17627090      -0.74776566       0.95114732
H       -0.14655983       1.06821978       0.04506143
H       -0.87204927      -0.50637704       0.86817998
H       -0.31937331      -0.87222910       0.08458221
H       -0.31885582       0.28823310       0.76506567
H        0.48013315       0.18515354      -0.35704571
H        0.07282018      -0.18063444       0.30167431
H        0.31278643       0.51199847       0.77509063
H        0.76629674       1.80999005      -0.09213945
H        0.41796741       1.07282043      -0.11970732
H        0.40533051       1.11313438       0.13058892
H        0.34675848       1.00707197       0.07413793
H        0.22959912       0.80707139      -0.08065170
H        1.18381500       0.35192364       0.69268703
H        1.18381500       0.35192364       0.69268703
H        1.18381500       0.35192364       0.69268703
H        0.03169399       1.01186454      -0.22745764
