6
Properties=species:S:1:pos:R:3 pbc="F F F"
H        0.00000000       0.00000000       0.00000000
H        0.42017129      -0.49897972       0.72286665
H       -0.11380068      -0.83756196      -0.58211952
H        0.13686675      -1.28183591       0.18477309
H        0.75564897      -0.55239564      -0.24559891
H       -0.53484488      -0.69373828       0.40140590
