21
Properties=species:S:1:pos:R:3 pbc="F F F"
H        0.00000000       0.00000000       0.00000000
H       -0.61304885      -0.15966894      -0.80746567
H       -0.66743118       0.61471456       0.47956815
H       -1.27092743      -0.03528204      -0.02961779
H       -0.65065354       0.79948556      -0.47627655
H       -0.63225430      -0.29853112       0.36518818
H       -0.69448966      -0.08036208      -0.06153882
H        0.22660851       0.28839403       0.02339095
H       -1.62955499       1.09793735      -0.55374992
H       -1.26461947       0.32333523      -0.09020424
H       -1.12891495       0.15585381      -0.03975332
H       -0.69109261       0.07558638      -0.25528127
H       -0.84747612       0.21944132       0.05803964
H       -0.46439514      -0.55190200      -1.56786704
H       -0.46187288      -0.52477556      -1.58076906
H       -0.46187288      -0.52477556      -1.58076906
H       -0.40482759       0.17787130      -1.58003640
H       -0.43206882       0.17787130      -1.58686793
H       -0.43206882       0.17787130      -1.58686793
H       -0.62687713       0.20543768      -1.59528613
H       -0.69976699      -1.07651401      -0.79287142
