7
Properties=species:S:1:pos:R:3 pbc="F F F"
H        0.00000000       0.00000000       0.00000000
H        0.63772744       0.77136850       0.22719663
H       -0.39524060       0.74740851       0.58179837
H        0.66509092       0.18817770       1.00642753
H       -0.10591640      -0.19475858       1.00208521
H       -0.05219215       0.76511014       0.97493500
H        0.73866963      -0.08895500       0.70694983
