6
Properties=species:S:1:pos:R:3 pbc="F F F"
H        0.00000000       0.00000000       0.00000000
H       -0.39122835      -0.01598554      -0.83368021
H        0.75685120       0.55622131      -0.41366410
H       -0.18785697       0.95513248      -0.45514178
H        0.45983347      -0.19475858      -0.89663047
H        0.24149522       0.70448887      -1.29233670
