6
Properties=species:S:1:pos:R:3 pbc="F F F"
H        0.00000000       0.00000000       0.00000000
H        0.88791460       0.34709048      -0.19798161
H        0.74192291      -0.15188923       0.62528419
H        1.17541790       0.77551770       0.69823921
H        0.15988317       0.46354809       0.90160102
H        0.35295451       1.00513124       0.12889272
