7
Properties=species:S:1:pos:R:3 pbc="F F F"
H        0.00000000       0.00000000       0.00000000
H       -0.30820453      -0.91843063       0.09775501
H        0.52823168      -0.77136850      -0.42342168
H       -0.09263443      -0.52595156       0.87642324
H        0.83639485      -0.24367130       0.33462316
H        0.50212723      -1.21144581       0.52369523
H        0.00888222      -0.19299465       0.84522641
