21
Properties=species:S:1:pos:R:3 pbc="F F F"
H        0.00000000       0.00000000       0.00000000
H       -0.01035373      -0.77460212      -0.58986890
H       -0.33425450      -0.27955404      -1.42852235
H        0.90558344      -0.57984352      -1.00993085
H        0.43762445       0.01871076      -1.02407336
H        0.34614950       0.26784137      -0.81041920
H        0.21758299      -0.34297892      -0.70748538
H        0.22423893      -0.34272560      -0.58060628
H        1.19497550      -1.17393756      -1.48827910
H        1.21158457      -1.17393756      -1.47782838
H        0.29536551      -0.15894991       0.23319340
H        0.28396964      -0.25602955       0.25640869
H        1.30934393      -0.99790764      -1.58239245
H        1.17933738      -1.96093476      -1.34537268
H        1.10475814      -1.97512710      -1.33915496
H        1.44787717      -1.35320425      -1.72420311
H        1.32483661      -1.99472320      -1.27889609
H        0.61931801      -0.21731955      -0.61881459
H        0.60576820      -0.21731955      -0.62910193
H        0.50991505      -0.28789207      -0.65700841
H        0.47539231       0.54906249      -1.62181687
