8
Properties=species:S:1:pos:R:3 pbc="F F F"
H        0.00000000       0.00000000       0.00000000
H       -0.90169489       0.25064358      -0.26867270
H       -0.18911645       0.49897972      -0.81444162
H       -0.70129645      -0.73873925      -0.45383760
H        0.21410692      -0.47454739      -0.83536506
H       -0.73188245      -0.27238879      -1.21906447
H       -0.12371242      -0.18296045       0.09894398
H       -0.40780735      -0.26949957      -0.75824523
