8
Properties=species:S:1:pos:R:3 pbc="F F F"
H        0.00000000       0.00000000       0.00000000
H       -0.51304650      -0.77136850      -0.44169885
H       -0.20488334      -1.29906571       0.31634599
H        0.30491829      -0.46392822       0.77107114
H        0.56844151      -0.83756196      -0.16937529
H       -0.29307491      -0.59658515       0.43545628
H        0.38173354      -0.58659756      -0.77828348
H        0.22200024      -1.28345323      -0.38535875
