9
Properties=species:S:1:pos:R:3 pbc="F F F"
H        0.00000000       0.00000000       0.00000000
H        0.90784711      -0.05341591       0.47569352
H        0.12333469       0.52595156       0.87263244
H       -0.59382695       0.40936196       0.65410495
H       -0.02263409      -0.33804655       1.06452322
H        0.17049861      -0.68929029       0.46922296
H       -0.63479960      -0.24501637       0.51875281
H        0.14322239      -0.17142400       1.06686521
H       -0.27202433      -0.07214743       0.47822073
