10
Properties=species:S:1:pos:R:3 pbc="F F F"
H        0.00000000       0.00000000       0.00000000
H       -0.50007260       0.47200781      -0.61275923
H       -0.74060082       0.49897972       0.38805994
H       -0.89277190       1.10788226       0.01134968
H       -0.05478512       0.97187352      -0.02283370
H       -1.72921777       2.28905964       0.00400949
H       -1.34466600       1.70323873      -0.74582899
H       -0.78867257       2.03841615       0.02877625
H       -0.38117218       1.58523059      -0.82208300
H       -1.25260139       1.44026053      -0.01691646
