7
Properties=species:S:1:pos:R:3 pbc="F F F"
H        0.00000000       0.00000000       0.00000000
H       -0.29363519      -0.58319080       0.72230726
H        0.00000000       0.29845181       0.98196250
H       -0.96900541       0.01689900       0.09382921
H       -0.99564397       0.06883827       1.07837117
H       -0.34052253       0.72151655       0.61598885
H       -0.87235582      -0.21808419       0.18757868
