7
Properties=species:S:1:pos:R:3 pbc="F F F"
H        0.00000000       0.00000000       0.00000000
H        0.12256700       0.83228827       0.37498182
H       -0.17594694       0.19475858       0.99218732
H        0.99028796       0.12438690       0.23912627
H        0.81126505       0.38951716       1.19419086
H        1.02369976       0.78435093       0.55937183
H        0.15794587       0.17780280       0.83718759
