6
Properties=species:S:1:pos:R:3 pbc="F F F"
H        0.00000000       0.00000000       0.00000000
H       -0.37664786      -0.36585209      -0.88182342
H       -0.35799965       0.58582085      -0.76287222
H       -1.19476354       0.14604440      -0.52945447
H       -0.80536258       0.49897972       0.22465827
H       -0.78041518      -0.50694335       0.02261785
