21
Properties=species:S:1:pos:R:3 pbc="F F F"
H        0.00000000       0.00000000       0.00000000
H       -0.53245163       0.67024595      -0.56620628
H       -1.12038600      -0.02657080      -1.03748488
H        0.03352076       0.37179413      -1.36865604
H       -0.26030484      -0.24818468      -0.74079776
H       -0.77403253       0.19574888      -0.59578049
H        1.14377832       0.79268777      -2.19633460
H        1.27966714       0.46033558      -1.23487735
H        0.43838537       0.07013988      -2.37982607
H        0.36038160       1.40740228      -1.94786024
H        0.41007042       0.51441383      -1.57350302
H       -0.07921851       0.94601583      -1.88444901
H       -0.04965442       0.99360573      -1.94451153
H        0.44377446       0.02051041      -1.85802114
H        0.38680708       0.15549880      -1.95057952
H        0.57110435       0.61667776      -2.28240657
H        0.57132816       0.59668517      -2.18126059
H        1.95136261       1.14208364      -1.57194877
H        1.97277749       1.14208364      -1.60067511
H        1.92895269       1.14208364      -1.54399180
H        1.09217799       0.88757014      -1.70813918
