21
Properties=species:S:1:pos:R:3 pbc="F F F"
H        0.00000000       0.00000000       0.00000000
H       -0.93989587      -0.24138860      -0.47165081
H       -0.41668496       0.39891118       0.84886253
H        0.08232975      -0.91159266       0.46426770
H       -0.70831108      -0.43958485       0.48508707
H       -0.09203941      -0.43865079       0.35245642
H       -1.86963427       0.08242537      -1.53259671
H       -0.92628491       0.60286051      -1.47457588
H       -1.90629482       0.08242537      -1.49931443
H       -1.40689468       0.49799049      -1.22274601
H       -1.51532388       0.89022350      -0.45557493
H       -1.51532388       0.89022350      -0.45557493
H       -1.51532388       0.89022350      -0.45557493
H       -1.94354045       0.69274908      -0.36986595
H       -1.88219929      -0.01621445      -1.54693496
H       -1.84388232      -0.01621445      -1.57934225
H       -0.39877474      -0.37906361      -0.63621521
H       -0.39877474      -0.37906361      -0.63621521
H       -0.39877474      -0.37906361      -0.63621521
H       -0.39877474      -0.37906361      -0.63621521
H       -0.39877474      -0.37906361      -0.63621521
