6
Properties=species:S:1:pos:R:3 pbc="F F F"
H        0.00000000       0.00000000       0.00000000
H        0.47219095      -0.55577880       0.64514065
H        0.05201960      -0.05679908       1.36800718
H       -0.49382448      -0.49897972       0.67469811
H       -0.40921760       0.52902174       0.66274267
H        0.55725175       0.41101363       0.65426129
