21
Properties=species:S:1:pos:R:3 pbc="F F F"
H        0.00000000       0.00000000       0.00000000
H       -0.47549847       0.19475858       0.88842231
H        0.28633800       0.79439902       0.58332199
H        0.63880807       0.79439902      -0.11907271
H       -0.58380467       0.73181123      -0.26774129
H       -0.23932455       1.21728420       0.46518004
H       -0.35711861       1.19777441       0.23573571
H       -0.48807222       1.07063448       0.17207456
H       -0.28678513       1.27014399       0.32524115
H        0.56152141       1.50732124       1.09747553
H        0.57939577       1.50732124       1.08750141
H        0.76562834       1.29009366       1.11126399
H        0.79556477       1.26504779       1.10613441
H        0.01539627       2.12300682       1.08955002
H        0.03332910       2.12300682       1.09874678
H        0.05157338       2.12300682       1.10730851
H        0.07010686       2.12300682       1.11522460
H        0.86882615       1.03162992       1.10288095
H        0.79030538      -0.19204319       0.35219529
H        0.79030538      -0.19204319       0.35219529
H        0.79030538      -0.19204319       0.35219529
