6
Properties=species:S:1:pos:R:3 pbc="F F F"
H        0.00000000       0.00000000       0.00000000
H       -0.96783787       0.05067664       0.09371616
H       -0.12021054      -1.01761651       0.05770484
H       -1.13703918      -0.89322960       0.12024487
H       -0.51454860      -0.46354809       0.75742108
H       -0.62978286      -0.43179566      -0.61346865
