7
Properties=species:S:1:pos:R:3 pbc="F F F"
H        0.00000000       0.00000000       0.00000000
H        0.17388797      -0.66108263       0.69339287
H        0.12259395      -0.87984765      -0.39862227
H        0.19583644      -1.54093027       0.27692288
H        0.83097476      -0.80911905       0.18146262
H       -0.49600387      -0.87984765       0.09695688
H        0.19855744      -0.10003912      -0.03141056
