21
Properties=species:S:1:pos:R:3 pbc="F F F"
H        0.00000000       0.00000000       0.00000000
H        0.15274149      -0.33235219      -0.95892441
H        0.39855319       0.68549418      -0.56507868
H        0.43046707       0.52599061      -1.55073810
H        0.81941152       0.01689900      -0.52568054
H       -0.39642259       0.43977645      -0.77298558
H        0.62292135       0.45667544      -1.37187743
H        0.26886436       0.60457218      -1.30626845
H        0.00334741      -0.72585201      -0.26010275
H        0.00334741      -0.72585201      -0.26010275
H        0.00629245      -0.75041628      -0.27387881
H       -0.02420542      -0.13806380      -0.13121867
H       -0.02420542      -0.13806380      -0.13121867
H        1.36702788      -0.23563717      -1.15057802
H        1.37247443      -0.20664798      -1.15679324
H        1.36702788      -0.23563717      -1.15057802
H        1.05509472       0.33009091      -0.83610642
H        1.03723180      -0.78026575      -0.79258454
H        1.04646444      -0.78026575      -0.78477585
H        1.05541742      -0.78026575      -0.77664798
H        1.20355070       0.70915282      -0.99638176
