12
Properties=species:S:1:pos:R:3 pbc="F F F"
H        0.00000000       0.00000000       0.00000000
H        0.21426670       0.05341591       1.00227761
H       -0.74975520       0.31760776       1.23506117
H        0.34472561       1.05167019       0.80279666
H       -0.45601916       0.67075121       0.43643689
H        0.10978115       0.74909735       0.87681830
H        0.05768579      -0.94521868      -1.09458172
H       -0.43845242      -0.66207206      -0.30607951
H       -0.66207063       0.28498983      -0.33968899
H       -0.60382468      -0.23613876      -1.00700009
H        0.32267708      -0.47555766      -0.28386664
H        0.12306966       0.01524419      -0.94864714
