21
Properties=species:S:1:pos:R:3 pbc="F F F"
H        0.00000000       0.00000000       0.00000000
H        0.88292891      -0.28314662      -0.29719594
H        1.26956701      -0.68205780       0.56576693
H        0.23101735      -0.83173102      -0.45046133
H       -0.42686129      -0.95611793       0.32738656
H        0.68235373       0.09254432       0.62262702
H        0.00241739      -1.30320835       1.12945199
H       -0.04724700      -0.36456305       0.87540603
H        1.03636885      -1.50795460       0.89890796
H        0.86563170      -0.66301489       1.23721099
H        1.11954081      -1.29011607      -0.04644364
H        0.17191771      -1.71257031       0.26241487
H        0.23101735      -1.64265692       0.26124543
H       -0.57433546      -1.87056065      -0.72154498
H        1.26896214      -0.53224915       2.22935629
H       -1.50059831      -1.75255251      -0.99753803
H        1.78279901      -0.66226029       3.63259125
H       -0.65045345      -1.80911136      -0.71310794
H        1.35772610       0.24933237       3.83663964
H       -0.61741424      -1.84044361      -0.70326352
H       -0.67195112      -1.42121649       1.82181168
