21
Properties=species:S:1:pos:R:3 pbc="F F F"
H        0.00000000       0.00000000       0.00000000
H       -0.27385142       0.28314662      -0.89044607
H       -0.46891487      -0.56565249      -0.45507121
H        0.16849779      -1.01237965       0.00443694
H        0.97293121      -0.48468244      -0.14550805
H       -0.06496236      -1.39083385      -0.86177874
H        0.68165159       0.30992770      -0.62697637
H        0.58112252      -1.04374337      -1.50221884
H        1.22119761      -0.37556648      -1.05946755
H        0.44179621       0.08838804      -1.59984112
H       -0.33212560      -0.72843486      -1.38130808
H        0.44160682      -0.17265606      -1.58257651
H        0.88768613      -1.23021817      -0.61473620
H       -0.33212560      -1.07280231      -0.24827445
H       -0.29236248      -1.07280231      -0.24897230
H       -0.29280588      -1.11191821      -0.26159883
H       -0.24815795      -0.73716968      -0.24598974
H       -0.24793583      -0.88324296      -0.58477873
H        1.57049501      -0.70978302       0.03875166
H        0.26796484       0.07766342      -0.59841752
H        0.22583020       0.05536127      -0.55064839
