21
Properties=species:S:1:pos:R:3 pbc="F F F"
H        0.00000000       0.00000000       0.00000000
H        0.87909138       0.39891118       0.34841394
H        0.36142403       0.08360267       1.11042571
H        1.08135235      -0.27133477      -0.40204239
H       -0.08510462      -0.95433736       0.17337349
H       -0.46262237      -0.31146979       0.87872839
H        0.84046721      -1.28668952       0.46694249
H        1.13456392      -1.10306573       0.10139871
H        1.25134015      -0.25443578       0.55653965
H        0.84046721      -0.76073796       1.34824777
H        0.78535223      -0.64623839      -0.36017379
H       -0.03113604      -1.12659001       0.94851792
H       -0.04718602       0.23508346       0.23970634
H        0.58228379       0.11141631       1.24344563
H        0.79543263      -0.92184383       0.28595430
H       -0.03011590      -0.46247315       1.31002450
H        1.85295343       0.11200383       1.44212103
H        2.53195906       0.61098355       1.93000579
H        2.78380418      -0.03947696       1.19998205
H        1.73010683       1.05076003       1.59580457
H        3.23324966       0.87211573       1.34253526
