21
Properties=species:S:1:pos:R:3 pbc="F F F"
H        0.00000000       0.00000000       0.00000000
H        0.69739223       0.29845181      -0.69129914
H        0.47870710       0.79349989       0.18072611
H        0.77935040      -0.69980252      -0.46747994
H        0.44673774       0.15966894       0.91008520
H        1.26476932      -0.45504564       0.98929548
H        1.60879695      -0.16509628      -0.60304749
H        2.04963398      -0.00142837       0.40419191
H        1.28076208       0.63383096       0.80083698
H        0.67420828      -0.92941606       0.52727962
H        1.44198394       0.68724686      -0.21132809
H        1.52710140      -0.83534223       0.16988200
H        1.98550487       0.06451726       0.32360917
H        0.42773983      -0.68549418       0.54332054
H        2.12962246      -0.53031528       1.01206911
H        2.23197865      -0.43814665       0.87847483
H        1.69862998      -1.57763386       0.12526286
H        1.59821761      -1.59501386       0.15402496
H        1.53029096      -1.59823060       0.14985779
H        2.29117608      -1.50558817       0.02745980
H        2.31358337      -1.47820973       0.02328311
