21
Properties=species:S:1:pos:R:3 pbc="F F F"
H        0.00000000       0.00000000       0.00000000
H       -0.07115869       0.77136850       0.67323917
H        0.18127106       0.85576171      -0.26335996
H        0.65631020       1.44161439       0.39959112
H        0.80108440       0.82478440       1.21144247
H        0.42457271      -0.04005998       0.96989739
H        1.21597147       1.10926223      -0.39391068
H        1.58881485       1.04270315       0.55652702
H        1.48835897       0.12427253       0.86386180
H        0.86119521      -0.43977645       0.11401925
H        1.71441317       0.31465209      -0.13273734
H        0.78623569       0.10835320      -0.62213892
H        1.54927397       0.13715598      -0.09100366
H        1.89869237       0.55576211       1.69978476
H        2.37559605       0.33792362       2.52025414
H        1.76865149       1.15439606       2.38492131
H        1.82168317       1.34915459       1.37865067
H        2.44317150       1.96532202       2.15787625
H        2.67180634       0.14316504       1.55710697
H        2.50914645       0.85017490       0.90275741
H        2.70553184       1.21777129       2.77534485
