21
Properties=species:S:1:pos:R:3 pbc="F F F"
H        0.00000000       0.00000000       0.00000000
H        0.42330277      -0.73181123      -0.48304045
H       -0.24333799      -1.44089115      -0.51230949
H       -0.03316909      -0.96142477      -1.37311625
H       -0.98735797      -0.77665377      -1.31442893
H       -0.16805196      -0.91658223       0.26810545
H       -0.85348481      -0.28314662       0.37343338
H       -1.14035738      -1.12713408      -0.00138885
H       -1.18405294      -0.52601016      -0.39434755
H       -0.64521813      -1.67044449      -1.13515460
H       -1.19159281      -1.14403307      -0.97357726
H       -0.25325632       0.00665069      -1.11289442
H       -0.30050424      -1.25834990      -0.75544965
H       -0.31982461       0.22448918      -0.16622871
H       -1.09817863      -0.04402595      -0.63164699
H        0.43399793      -0.46535712      -0.72145081
H       -1.56934488      -1.14403307       0.87253630
H       -1.48769772      -0.86088645      -0.05548453
H       -1.16605806      -0.66828811      -0.07165509
H       -1.95214045      -1.58380949       1.65236008
H       -1.67775536      -1.08934247       1.31614494
