21
Properties=species:S:1:pos:R:3 pbc="F F F"
H        0.00000000       0.00000000       0.00000000
H       -0.53245163       0.67024595      -0.56620628
H       -1.14733934       0.00000000      -0.09080407
H       -0.62778997      -0.25885177      -0.84143150
H       -0.49643913       0.65243351       0.45932275
H       -0.48621717      -0.27666420       0.75041354
H       -0.28395617      -0.94691014      -0.00004280
H       -1.24711251      -0.85795516       0.34309089
H       -0.61017263      -0.11549121       0.16911942
H       -1.39558721       0.11757028       1.01412749
H       -1.80295014       0.48342237       0.14606553
H       -1.12126243      -0.77622050       0.74219942
H       -2.09206247      -0.32220617       0.49491692
H       -1.93677735      -0.11808041      -0.53849459
H       -0.74193853       0.67379159       0.45137960
H       -0.46454751       1.06247902      -1.33802056
H       -0.67551064      -0.84359729      -1.74692738
H       -0.63057518       0.54505610       0.30128390
H       -0.59555471      -0.83242953       1.26186252
H       -0.55940950      -0.83242953       1.26827228
H       -0.54318482      -0.81394345       1.28938997
