21
Properties=species:S:1:pos:R:3 pbc="F F F"
H        0.00000000       0.00000000       0.00000000
H       -0.93989587      -0.24138860      -0.47165081
H       -0.13031785       0.43148959       0.92204005
H        0.09065977      -0.55622131       0.85774273
H       -0.35744375      -0.85467315      -0.01601559
H       -0.67424881      -0.29105830       1.40720761
H       -0.76784545      -1.11244261       0.94087213
H       -1.71527004       0.14322515       0.17254981
H       -0.71026015       0.63587439       0.19812916
H       -1.19475234       0.66917670       0.88371801
H       -1.41607201      -0.87726301       0.09135970
H       -1.58037877      -0.45072722       0.95250094
H       -1.66214347      -0.17962241       0.97935575
H       -1.48664963      -0.23748022       0.68165344
H       -1.62589240       0.17232630       0.19009408
H       -1.80828750      -1.64861071       0.01825149
H       -1.80828750      -1.64861071       0.01825149
H       -1.81061149      -1.64861071       0.03206101
H       -1.63048995      -1.50968564      -0.46381745
H       -1.70367479      -1.64863157      -0.52150178
H       -1.72500575      -1.64863157      -0.51103091
