12
Properties=species:S:1:pos:R:3 pbc="F F F"
H        0.00000000       0.00000000       0.00000000
H        0.87747955       0.49504808      -0.19565487
H        0.82999182      -0.27632043       0.47966689
H        0.20478596      -0.93864530       0.15833078
H       -0.16485976      -0.72254789      -0.70997864
H        0.63581866      -0.70473546      -1.35178900
H        0.53738761      -1.45214391      -0.65535825
H        1.20412397      -1.16825891       0.11445462
H        1.31511283      -0.00791872      -1.02570653
H        1.43110800      -0.98859584      -0.85463440
H        0.30890036       0.12699556      -0.96525460
H        1.60004210      -0.22749981      -0.09999010
