21
Properties=species:S:1:pos:R:3 pbc="F F F"
H        0.00000000       0.00000000       0.00000000
H        0.36329272       0.89468008       0.34769225
H        0.81840390       0.46354809      -0.41068491
H        0.55209649      -0.52583468      -0.47006452
H        1.47488558       0.71419168       0.26331100
H        0.38550559      -0.87668937       0.36895126
H        1.21958256       0.39888316       1.14844489
H        0.97297537      -0.52959889       1.06355071
H        1.14699149      -0.84114319       0.23331416
H        1.80180383      -0.11753935       0.64984542
H        0.15190876       0.08511567       1.02750158
H        0.94262958       0.51622587       1.03267562
H        0.24965863      -0.08229035       1.00440359
H        1.50580359       0.05724400      -0.20465589
H        0.60618854      -0.28984648      -0.33986664
H        0.04819196       1.28169501       0.37820360
H        0.30932155       2.16057110       0.29030675
H       -0.20805874       1.63287389      -0.34366030
H        1.22052383       2.17747021      -0.05245531
H        0.40126970       1.43811536      -1.14622593
H        1.03413689       1.63287389       0.67009532
