21
Properties=species:S:1:pos:R:3 pbc="F F F"
H        0.00000000       0.00000000       0.00000000
H        0.30968034       0.89379078      -0.23086154
H       -0.52877784       0.69903219       0.32804888
H       -1.02488530      -0.05341591      -0.00899383
H       -0.36905089      -0.43977645      -0.78642166
H       -1.16518986       0.11644486      -1.11824155
H       -0.25508547       0.06576822      -1.46059060
H       -0.83999890       0.90333021      -1.36215246
H       -1.39278913       0.85817677      -0.30389962
H        0.26030976       0.22961354      -0.96583658
H       -0.04736575       1.18527889      -1.17882359
H       -0.56039232       1.38883889      -0.45719051
H       -1.30231118       0.97408724      -0.57145894
H       -1.07013690      -0.05833849      -0.21893424
H       -0.53890812       0.24319535      -1.70152712
H       -0.45861962       0.19569153      -1.68274963
H        0.24910733       0.41067678      -0.66876847
H       -2.24532413       0.51697183      -1.56842685
H       -1.01052213       1.09632385      -0.83568990
H       -2.28382492       0.43482995      -1.53903246
H       -2.28382492       0.43482995      -1.53903246
