21
Properties=species:S:1:pos:R:3 pbc="F F F"
H        0.00000000       0.00000000       0.00000000
H        0.24483983      -0.86484438      -0.37437752
H        0.26703945       0.01781246      -0.99080598
H        0.15063511      -0.77132761      -1.44512844
H       -0.56060570      -1.26637566      -0.89523053
H       -0.52277797      -0.87668937       0.10697100
H       -0.50781190       0.10676746      -1.65790141
H       -0.86885583      -0.78914005      -1.56193960
H       -1.21694255       0.00547010      -1.11979568
H       -1.46122134      -0.71345222      -0.67775774
H       -0.98298758       0.03490329       0.00435627
H       -0.44940102       0.58319080      -0.63717198
H       -1.28608346       0.14419019      -0.14194041
H        0.00482523      -0.66783464      -1.36591554
H        0.17935723       0.69151300      -2.24950814
H       -0.84444892      -0.79328364       0.00162178
H        0.00456321       0.19253328      -1.43187308
H        0.14443061       0.04971915      -1.25490522
H        0.82822567      -1.36382413       0.22457251
H        0.24257298       1.58994198      -3.44902015
H        0.31758505       1.14860845      -2.84479523
