21
Properties=species:S:1:pos:R:3 pbc="F F F"
H        0.00000000       0.00000000       0.00000000
H       -0.12270200      -0.91159266      -0.45526573
H       -0.41956994       0.01781246       0.93646556
H        0.66017675      -0.66094911       0.06659588
H        0.19109318      -0.50988477       1.48115563
H       -0.70804393      -0.82519329       1.28067148
H       -0.05922452      -1.47796023       1.24986613
H        0.25455767      -1.46737146       0.24960724
H        0.47364712      -0.09351680       0.96490431
H       -0.80717105      -1.33660579       0.39017636
H       -0.97153503      -0.38226843       0.49159449
H       -0.44623268      -0.82204485      -0.20029777
H        0.65054053      -1.09943986       1.06565857
H       -0.67973638      -1.49577272       0.43257076
H       -0.97303718      -0.34939590       0.30862376
H       -0.62546039       0.21783850      -0.71372724
H       -0.96843165       0.65344894      -1.23815465
H       -1.93214631       0.56905574      -1.34857512
H       -0.42566574      -0.11791956      -1.64277768
H       -2.16361952      -0.38660955      -1.05455506
H       -1.80632067      -0.12241769      -1.97968423
