21
Properties=species:S:1:pos:R:3 pbc="F F F"
H        0.00000000       0.00000000       0.00000000
H       -0.30729049       0.46966103      -0.79564559
H       -0.84000713      -0.16621336      -0.28580481
H       -0.85709262      -0.14931436      -1.25919247
H       -0.31079376      -0.98268580       0.04073760
H        0.05848122       0.03817144      -1.65200520
H        0.66350472      -0.69363976      -1.43645966
H        0.16948897      -1.42545104      -1.02601874
H        0.62488675      -0.77136850      -0.26044416
H        0.66720366      -0.83963019      -0.34600568
H       -0.91605693      -1.07096219      -0.70132536
H        0.98163325      -1.38299227      -1.09029448
H        0.82821536      -1.70667219      -1.51708829
H        0.84226906      -1.64899802      -1.52756512
H        0.02138090      -1.46987343      -0.57721186
H       -0.11235237      -0.50919229      -0.42143840
H       -0.28689164      -0.94371337      -1.57084107
H       -0.15797143      -1.25902188      -0.65868920
H       -0.97198731      -0.23442733      -0.91516465
H       -0.76845545      -0.49867743      -1.00146031
H        0.53512669      -0.61452508      -1.33427656
