21
Properties=species:S:1:pos:R:3 pbc="F F F"
H        0.00000000       0.00000000       0.00000000
H        0.14728610      -1.02954066      -0.28719354
H        0.86248738       0.55622131      -0.00756886
H        0.01739773      -0.25817215      -0.95160574
H        0.70389175      -1.00558066      -1.10467589
H        0.33131915       0.57403374      -0.88555914
H        1.60907936      -0.57409108      -0.88609892
H        1.33708572       0.37927514      -0.82369930
H        0.92189419      -0.01678355      -1.48802435
H        1.64140892      -0.25878257       0.03455102
H        0.89961904      -0.29845181       0.39361900
H        1.25992489      -1.08418894      -0.25207758
H        0.27044207      -0.91431487      -0.23006070
H        1.57062793      -0.20654571      -0.01401055
H        2.21207476      -0.77935219       0.38261890
H        1.55259979      -2.22578454      -0.13608050
H        1.54834867      -2.22578454      -0.12588073
H        1.55259979      -2.22578454      -0.13608050
H        1.54834867      -2.22578454      -0.12588073
H        1.54834867      -2.22578454      -0.12588073
H        1.54374218      -2.22578454      -0.11583640
