21
Properties=species:S:1:pos:R:3 pbc="F F F"
H        0.00000000       0.00000000       0.00000000
H       -0.41358426      -0.01689900      -0.88131911
H        0.56846219       0.55622131      -0.64868522
H        0.41654080       1.56214428      -0.51317656
H       -0.04006454       1.02162731       0.08942267
H       -0.40287083       1.54524529      -1.03885698
H       -0.98780358       0.68927515      -0.12189840
H       -0.56403476       0.68040091      -1.45614731
H        0.61064148       0.00091346      -0.81832391
H        0.13051352       0.31142983      -1.54802418
H        0.40140367       1.00592303      -1.37556434
H       -1.00247717       0.19029543      -0.95787978
H       -0.36764866       0.04700279      -0.30611467
H       -0.44031399       1.52683711      -0.35008451
H       -1.26577413       1.08818626      -1.02573812
H       -0.36978865       1.00635839      -0.54971635
H        0.02972377      -0.05442226      -0.59444278
H       -0.47069389       0.90567291      -1.03271544
H        1.11442924       0.75527942      -1.98943174
H        0.38850635       0.83511084      -1.42818236
H        1.01301825      -0.15248501      -0.41574684
