21
Properties=species:S:1:pos:R:3 pbc="F F F"
H        0.00000000       0.00000000       0.00000000
H        0.35866648      -0.83756196      -0.47241095
H        1.21876013      -1.16991413      -0.02173927
H       -0.41163743      -0.77460212       0.42261937
H        0.96703827      -0.17647934      -0.09702516
H        1.36235487      -0.55493355       0.70830590
H        0.96345717      -1.48522258       0.86339462
H        0.27681369      -1.44484806       0.78335381
H        0.80175775      -1.08685088       1.45014429
H       -0.10048480      -0.18477097       0.95069629
H        0.33684298      -1.65403438       0.14905545
H       -0.35911572      -0.98904276       0.16782585
H        0.56924748       0.08793402       0.81331050
H        0.59351492      -0.59756017       1.50437462
H       -0.04050726      -1.19906294       1.21360290
H        1.24232686      -0.61537260       0.70935917
H        0.55133128      -1.11101961       0.89014947
H        0.63448453      -1.92357481      -0.21840785
H        0.61997676      -1.01024520       0.79636109
H        0.22282565       0.06771475       1.55345261
H        0.28559661       0.09205014       1.61407351
