21
Properties=species:S:1:pos:R:3 pbc="F F F"
H        0.00000000       0.00000000       0.00000000
H        0.17388797      -0.66108263       0.69339287
H        0.28570235      -0.87984765      -0.30381435
H       -0.52776200      -0.46354809      -0.74827415
H       -1.35790253      -0.73138946      -0.45252863
H       -1.19541681      -1.40163541       0.30753234
H       -0.65483302      -1.41060996      -0.56122428
H       -0.64542788      -0.97014582       1.05896616
H       -0.48990288      -0.00207037       0.75570756
H       -0.99995291       0.09223071      -0.10313344
H       -0.15972391      -1.55596662       0.37032294
H       -1.42343426      -0.49359015       0.62542772
H       -1.39270675      -0.46719760       0.53858948
H       -0.56721836      -1.40579915      -0.52568161
H       -2.34636927      -1.38108253       0.58545423
H       -2.34636927      -1.38108253       0.58545423
H       -2.34636927      -1.38108253       0.58545423
H       -2.34636927      -1.38108253       0.58545423
H       -2.34636927      -1.38108253       0.58545423
H       -2.34636927      -1.38108253       0.58545423
H       -2.34636927      -1.38108253       0.58545423
