21
Properties=species:S:1:pos:R:3 pbc="F F F"
H        0.00000000       0.00000000       0.00000000
H        0.50421435      -0.31530851      -0.77097952
H        1.08327663      -1.17365134      -0.46756262
H        0.65722507       0.34709048       0.62900257
H        0.12178123      -1.32513213      -0.44224426
H        0.88653672       0.50675941      -0.35854280
H        1.34253085      -1.00579429       0.56623548
H        1.13633180      -0.42751163       0.97325438
H        0.07002535      -0.96154690      -0.02399683
H        0.69416666      -1.07955503       0.71396154
H        1.06920063      -1.23928714      -0.32171541
H        0.07258052      -0.34774381       0.55227053
H        1.03479147      -0.54002994      -1.80555308
H        0.63657528      -1.41671932      -1.45035803
H        1.56591737      -1.41671932      -1.75412393
H        1.61492491      -1.84820890      -2.68403721
H        1.49807787      -0.91754633      -2.52520227
H        1.54189634      -0.17873478      -0.57913840
H        1.58522320      -0.11220312       0.16880548
H        0.12156820      -0.40969917       0.82073700
H        0.04530632      -1.79517353      -2.12506866
