17
Properties=species:S:1:pos:R:3 pbc="F F F"
H        0.00000000       0.00000000       0.00000000
H       -0.61304885      -0.15966894      -0.80746567
H       -0.46183324       0.61471456       0.67982346
H       -1.58958542      -0.31933787      -0.53505790
H       -0.25797445      -0.33234733       0.77768207
H       -1.40860319       0.69910777       0.46871847
H       -0.94036466      -1.06674635      -0.80564415
H       -1.08458102      -0.88856864       0.53138298
H       -0.03642529      -0.88221681      -0.36164770
H       -1.17616081       0.03152376       0.99237013
H       -1.45820963      -1.11742294       0.01735616
H       -1.62362778      -0.23494467       0.43436450
H       -0.69309795       0.70366955      -0.31613219
H       -0.69411534      -1.40816832       0.22498903
H       -0.17098278      -0.61355817       0.43232432
H       -0.58952707      -1.34989297       0.05737484
H       -1.21966410       0.33335862      -0.09767857
