12
Properties=species:S:1:pos:R:3 pbc="F F F"
H        0.00000000       0.00000000       0.00000000
H        1.00909960       0.15966894       0.09771150
H        0.45088935      -0.48319864       0.67081404
H        1.09682322       0.12670141       1.06937695
H       -0.39355075      -0.04342219       0.87472200
H        0.25946337      -0.01965055       1.56624866
H        1.07200849       1.03829408       0.59851933
H       -0.40126553       0.88398468       0.43519869
H        0.57610393       0.89806992       1.50200379
H        0.36987489       0.98487818      -0.14812589
H       -0.25642949       0.81422019       1.42150462
H        0.06814724       1.42402148       0.78181016
