12
Properties=species:S:1:pos:R:3 pbc="F F F"
H        0.00000000       0.00000000       0.00000000
H       -0.06381270       0.34709048       0.90747839
H        0.77586979      -0.03136373       0.59161961
H        1.39139855       0.70044750       0.40821400
H        0.82908136       0.80036730       1.09506071
H        0.89426875       0.14422619      -0.29662904
H        0.97609466       1.55996895       0.34305030
H        0.03360039       1.40030003       0.71659303
H        0.18563303       1.51830816      -0.23788124
H        0.19608584       0.69681674      -0.72754425
H        1.11274385       1.12019253      -0.51484513
H       -0.45281225       0.81063855       0.07854754
