21
Properties=species:S:1:pos:R:3 pbc="F F F"
H        0.00000000       0.00000000       0.00000000
H       -0.72715116       0.63587439       0.12237607
H       -0.92982531      -0.21292472      -0.30950844
H        0.58078772       0.19475858      -0.82345533
H       -0.10291958      -0.56001520      -0.68873930
H       -0.55547583       1.24577451      -0.61695498
H       -0.63022739       0.77611351      -1.46659708
H       -0.03280403       0.08285236      -1.48568916
H        0.36728871       1.00438595      -1.12130058
H        0.43549573       0.95370930      -0.15133119
H       -0.47495848       0.83570123       0.17302683
H       -0.92003947      -0.12852561      -1.13534391
H       -1.20637739       0.66587341      -0.55202186
H       -0.18383336       0.66884208      -1.23125839
H       -0.46540642       0.43327415       0.13441312
H       -0.56787860       0.56909555      -0.05417402
H       -1.32110977      -0.86482197      -0.24365714
H       -1.30361974      -0.87819964      -0.29966557
H       -1.30338943      -0.87819964      -0.32590988
H       -1.41450858      -0.76914603       0.40395057
H       -1.39917541      -0.73887628       0.43642008
