21
Properties=species:S:1:pos:R:3 pbc="F F F"
H        0.00000000       0.00000000       0.00000000
H       -0.56912082      -0.52595156       0.67290437
H       -0.99564397       0.22961354       0.09640864
H        0.57344133       0.61471456       0.58874017
H        0.30049500      -0.36025172       0.96165884
H       -1.05765498       1.00421572       0.68310034
H        0.32833016       0.41995597       1.56614161
H       -0.22507712       0.94706190       0.02179432
H       -0.44741777      -0.30957508       1.58304381
H       -0.69415903       0.62907022       1.66130412
H       -1.20031393       0.14429438       1.12643445
H       -0.21201158       1.21027911       0.98436904
H       -0.06460547       1.21435499       1.04859388
H       -2.01769781       0.12465501       1.90871859
H       -1.74321008       0.84720290       2.58392572
H       -1.30647647      -0.08020401       2.53388572
H       -2.74625373       0.50310922       2.43220663
H       -1.60951495      -0.60615557       3.36145234
H       -1.46635950       0.38334408       3.43548679
H       -2.61063218      -0.80091417       3.24674654
H       -1.84478724      -0.77002507       2.38091922
