21
Properties=species:S:1:pos:R:3 pbc="F F F"
H        0.00000000       0.00000000       0.00000000
H        0.45934626      -0.55622131       0.73002923
H        0.80475074       0.39891118       0.49655822
H        0.65437210       0.58368218      -0.44753227
H        0.26904133      -0.90665692      -0.23162663
H        0.30796534      -0.25064358      -0.88904220
H        1.02203763      -0.97319150      -0.74292850
H        1.11539686      -1.08391857       0.24095437
H        1.34056079      -0.28837994       0.72229600
H        1.66845465       0.38109872      -0.05753747
H        1.29965615       0.01354828      -0.89774489
H        1.67953670      -0.53902352      -0.15539074
H        1.57754028       0.38892359      -0.04360959
H        2.24358463      -1.17144608      -0.34525058
H        2.24990010      -1.17144608      -0.32533866
H        0.83882672      -1.37273264      -0.13325293
H        0.83856767      -1.37273264      -0.16277061
H        0.83934468      -1.37273264      -0.19227961
H        1.35119784      -1.78029752      -0.12684101
H        0.29499602      -0.86945045      -0.13610965
H        0.29499602      -0.86945045      -0.13610965
