21
Properties=species:S:1:pos:R:3 pbc="F F F"
H        0.00000000       0.00000000       0.00000000
H        0.46564069       0.84879911      -0.10382564
H        0.00000000       0.60990006       0.75900126
H        0.66606086      -0.68549418       0.18579951
H        1.47964811       0.72441220      -0.00563891
H        0.20299609      -0.33235219       0.94955707
H        0.99836349       1.07841265       0.74281943
H        0.90044379       0.01781246      -0.49214596
H        1.65045691       0.30704415       0.92472267
H        1.10684168      -0.45588064       1.08374929
H        0.78302205       0.33789375       1.46691990
H        0.04127884       0.71256053       0.80168492
H        1.67315793      -0.30088043       0.14158268
H        1.24318743      -0.54226905       1.10126185
H        2.57171512       0.59019077       0.78625906
H        1.65452778       0.44666743       0.05105650
H        1.57513344       0.56963795       0.14691806
H        1.08066988       1.71119356      -0.63332474
H        1.08066988       1.71119356      -0.63332474
H        1.08066988       1.71119356      -0.63332474
H        1.06170857       1.71119356      -0.65458262
