21
Properties=species:S:1:pos:R:3 pbc="F F F"
H        0.00000000       0.00000000       0.00000000
H        0.12529835      -0.08895500      -1.01474690
H        0.21310246       0.80572510      -0.51960862
H        0.95075190       0.38070601      -1.22946930
H        1.27195847       0.85036707      -0.43933916
H        0.69880199       0.68771702       0.31599355
H        0.46719587      -0.75366068      -0.40222445
H        1.67341733       0.15109247      -0.53783643
H        0.78350669      -0.32466263       0.46172035
H        1.57324481       0.20749950       0.30178952
H        1.37684441      -0.67382926      -0.28179014
H        0.91551417      -0.63167363      -1.06463766
H        1.00159001      -0.55352509      -1.00290573
H       -0.81007969      -0.20696309      -1.25806355
H       -0.14704102      -0.10171263      -0.70719409
H       -0.04958284      -0.22660246      -0.42037052
H       -0.02117676       0.01970485      -0.33593237
H       -0.43779922      -0.53602540      -0.24140429
H       -0.32843536      -1.19793463      -0.26832351
H       -0.04184836      -0.17951012      -1.33165753
H       -0.34316123      -1.16966534      -0.26584524
