21
Properties=species:S:1:pos:R:3 pbc="F F F"
H        0.00000000       0.00000000       0.00000000
H        0.12256700       0.83228827       0.37498182
H       -0.10708134       0.12438690       1.01310670
H       -0.87848425      -0.36585209       0.38437164
H       -1.08836734       0.24877380       1.28683925
H       -0.49478436       1.01705921       1.10491192
H       -0.67622322       0.30439386      -0.36608469
H       -1.12218976       1.16203630      -0.02128437
H       -1.19969106       0.10380894       1.17450178
H       -0.79519850      -0.51848066       0.60501349
H        0.07888924      -0.85764241       0.55816662
H       -0.36197561       0.79922068       2.04457617
H       -0.18688741      -0.10353082       1.99240613
H       -1.48486149       0.25044364       0.28003255
H       -0.47146809       1.35679483       0.74810135
H       -1.28159404       0.68095970       0.97408837
H       -0.22375125       0.98725295      -0.12422541
H       -0.96095681      -0.01725173       2.21166372
H       -0.99132085      -0.63122803       1.84246123
H        0.18976051      -0.46938291       1.11058271
H       -1.30075383       0.88361388       1.80037510
