14
Properties=species:S:1:pos:R:3 pbc="F F F"
H        0.00000000       0.00000000       0.00000000
H        0.54069358       0.79439902       0.36042264
H        0.26347378       1.02401257       1.32154214
H       -0.38107821       1.27465618       0.63612890
H        0.46601725      -0.08229035       0.88878143
H       -0.30201608       0.84781492      -0.22293928
H       -0.22123146      -0.09827589       1.50178349
H       -0.37471426      -0.52206683       0.67008489
H       -0.72638476       0.75982070       1.38242340
H       -1.19759357       0.65994161       0.54257429
H       -0.96604311      -0.20490277       0.15983492
H       -1.09492087      -0.18891723       1.07168627
H       -0.54279083       0.68977731      -0.11169592
H        0.16352510       0.76656848       1.27360058
