21
Properties=species:S:1:pos:R:3 pbc="F F F"
H        0.00000000       0.00000000       0.00000000
H        0.75529516      -0.29845181       0.62751859
H        0.90788049      -0.21405861      -0.33042526
H       -0.10321009      -0.85467315       0.71064800
H        0.88277292      -1.06285775      -0.80683959
H        0.19132990      -0.31544924      -0.93572325
H        0.75737810      -1.27032530       0.68683511
H        0.07074487      -1.28088045      -0.89747661
H        1.30120516      -1.07170105       0.07339296
H       -0.06912470      -1.56877708       0.15660542
H        0.83600336      -1.64877951      -0.20683789
H       -0.56981152      -0.77136850      -0.36555353
H       -0.54746902      -0.83777416      -0.15561372
H        0.29127964       0.79461014      -0.48146829
H        0.70256126      -0.21047926      -0.16348484
H        0.08684376       1.71304083      -0.73197186
H        0.09458701       2.00687647      -0.62809932
H        0.19017175       1.75507307      -0.60535991
H        0.17307034       0.08398718      -0.73336405
H        0.18361790       0.07475913      -0.71088797
H        0.29528618       0.06639844      -0.70972598
