21
Properties=species:S:1:pos:R:3 pbc="F F F"
H        0.00000000       0.00000000       0.00000000
H       -0.78841746      -0.36585209      -0.54577839
H       -0.60169017       0.66108263      -0.38600475
H        0.44470930       0.74740851      -0.54492027
H        0.68955362       0.49676493      -1.45337498
H       -0.44944158      -0.61649567      -1.42346513
H       -0.90662265       0.37793601      -1.26629162
H        0.67116332      -0.52764225      -1.51317227
H       -0.26367280       0.98941147      -1.17738473
H        0.73689234      -0.05067664      -0.63441515
H       -0.10411733      -0.05798122      -1.86872721
H        0.36268514      -0.90609646      -0.67075044
H       -0.48118967      -0.54947090      -1.37695801
H       -0.22276834       0.31916553      -1.95354271
H        1.16941440       1.50185430      -1.65337431
H       -0.25334531      -0.78170955      -1.48214328
H        1.04512215      -1.80630970      -0.60466981
H        1.07779193      -1.78197241      -0.62676769
H        1.07294536      -1.78197241      -0.57671446
H        1.06459951      -1.78197241      -0.52712452
H        1.07580781      -1.78197241      -0.60169852
