21
Properties=species:S:1:pos:R:3 pbc="F F F"
H        0.00000000       0.00000000       0.00000000
H       -0.90169489       0.25064358      -0.26867270
H       -0.04488779       0.46966103      -0.85174203
H       -0.95152408      -0.74761069      -0.03558640
H       -0.05767934      -0.25288686      -1.58049774
H        0.52643871      -0.36790094      -0.69236892
H       -0.02912016      -1.19499052      -1.17435873
H       -0.88930172      -0.66903895      -1.36615682
H       -0.96447694       0.23443297      -1.25744247
H        0.11207843      -1.00377536      -0.08242619
H       -0.60110271      -1.33612752      -0.74139410
H       -1.29767346      -0.47976932      -0.84600562
H       -0.71046019      -1.25437140      -0.78914553
H        0.10043535      -1.18437338      -1.14537871
H        1.12721455      -1.95073152       0.05197431
H        1.09402251      -1.98569942       0.04757978
H        1.09402251      -1.98569942       0.04757978
H        1.09798002      -1.98569942       0.01303904
H        1.09402251      -1.98569942       0.04757978
H        1.13414156      -1.95073152      -0.01956403
H        1.12721455      -1.95073152       0.05197431
