21
Properties=species:S:1:pos:R:3 pbc="F F F"
H        0.00000000       0.00000000       0.00000000
H       -0.96783787       0.05067664       0.09371616
H        0.24515766      -0.92909771      -0.15727705
H       -0.64007074      -0.80471081       0.34692770
H        0.26511088      -0.12438690      -0.98365033
H       -0.68646371      -1.41641760      -0.39961645
H       -1.14409590      -0.91743791      -1.09936845
H       -0.11465573      -1.01750636      -1.15276277
H       -0.48236895       0.52595156      -0.73757643
H       -0.53101325      -0.14081699      -1.48650825
H       -1.31081176       0.01885195      -0.83863175
H       -1.35829949      -0.75251657      -0.16330999
H        0.37504607      -0.15772921      -0.82168925
H       -0.43910640      -1.56332862      -2.08939528
H       -0.32706645      -1.45169938      -2.99676704
H       -0.13126487      -2.23847198      -2.55974460
H       -1.15980518      -1.66953790      -3.45190835
H       -1.63048649      -2.39208579      -2.89539480
H       -1.45271468      -1.65228367      -1.95519710
H       -0.69490457      -2.48175931      -1.89162421
H       -0.96305436      -3.08890247      -2.54567385
