21
Properties=species:S:1:pos:R:3 pbc="F F F"
H        0.00000000       0.00000000       0.00000000
H       -0.02074104      -0.97334045      -0.01546210
H        0.43301663      -1.40482998      -0.82863164
H       -0.57278448      -0.49897972      -0.60909605
H       -0.51565778      -1.18699145      -0.80365086
H       -0.20291717       0.37845421      -0.87387526
H       -0.65451992      -0.31030208      -1.31887603
H        0.77659750       0.18369563      -0.63735044
H        0.88875765      -0.71933579      -1.34868813
H        0.44917980      -0.04591791      -1.58254838
H        0.09428281      -0.95316964      -1.60054910
H        0.86362255      -0.63277680      -0.02162045
H        0.93949902      -0.70801324      -0.27073747
H        0.26843321       0.08860910      -1.52467036
H        0.62533498       1.00016809      -0.03417850
H        0.97922850       1.86501241       0.23943517
H        0.64818752       1.30303192       0.15332264
H        0.69387043       1.35578227      -0.06401309
H       -1.62510395      -0.90235513      -0.50719953
H       -2.46239328      -1.31171703      -0.78903317
H       -1.69835567      -1.92643166      -0.48621899
