21
Properties=species:S:1:pos:R:3 pbc="F F F"
H        0.00000000       0.00000000       0.00000000
H        0.59380746      -0.49897972      -0.58861941
H        0.57802963      -0.00393164      -1.48750877
H       -0.33549309      -0.43148959      -0.86866856
H       -0.26203269      -0.52988321      -1.22106147
H       -0.86261368       0.21783850      -0.39560708
H       -0.32138795       0.21390685      -1.79025483
H       -0.52533990       1.05146885      -1.23328328
H       -0.56289798      -0.24570960      -1.26083398
H        0.35949260       0.74160409      -1.33638453
H       -0.62855446       0.75301707      -0.25676036
H        0.77637529       0.33224213      -0.55747974
H        0.38725281       0.84197205      -0.37314925
H       -1.03932667       0.17477947      -1.08990514
H        0.12431514       1.16947699      -0.51768339
H       -0.95620036       1.90981174      -1.72494793
H       -0.32919961       0.94339406      -1.45061028
H       -1.24705434       3.03719664      -2.67067909
H       -1.48591292       3.33564854      -1.71821022
H       -0.49158078       3.21126175      -1.93992019
H       -1.27992785       2.92823625      -2.77756929
