21
Properties=species:S:1:pos:R:3 pbc="F F F"
H        0.00000000       0.00000000       0.00000000
H        0.05110265      -0.33235219      -0.96966726
H        0.43944827      -0.85830379      -0.17853737
H        1.38403368      -0.64046526      -0.08707281
H        0.95441985      -0.60766017      -0.96596545
H        0.76788080       0.36041528      -1.25119686
H        0.70049417       0.69681674       0.27762976
H        1.54829538       0.03028595      -0.69653875
H        1.47972488       0.36420858       0.29450408
H        1.08544981       1.01044703      -0.47429398
H        0.08325149       0.53643346      -0.66550326
H        0.74895543      -0.24358922       0.58281356
H        0.16961831       0.72730041      -0.64500320
H        1.01403916       0.93191004      -0.44007894
H        0.52594626       0.29522467      -0.16084838
H        0.51669276       0.33512273      -0.20133701
H        0.35967296       1.44745803      -1.01869154
H        0.35176483       1.44745803      -1.03316045
H        0.54700470       0.89527851      -0.21800315
H        0.52052605       0.96728247      -0.26484895
H        0.45868129       1.00220919      -0.30523139
