20
Properties=species:S:1:pos:R:3 pbc="F F F"
H        0.00000000       0.00000000       0.00000000
H       -0.32983679       0.96807545      -0.08579928
H       -0.08378459       0.18477097      -0.95231336
H        0.78563911      -0.03306752      -0.57190609
H       -0.65499103       0.25899553      -0.66850108
H        0.68236941       0.55275333      -1.40825129
H       -0.21126732       0.30967218      -1.53371906
H        0.39613348       1.52429676      -0.55153412
H       -0.51613700       1.30042768      -1.03877258
H       -0.38346645       0.61493349      -1.71741617
H        0.32020932       1.24975109      -1.53477418
H        0.67427671       0.85354555       0.01509362
H       -0.82982135       0.40663689      -0.81338155
H        0.81997097       1.39823103      -1.06976783
H        0.94278216       0.65082252      -0.37722045
H       -0.61160779       1.81687450       0.29917622
H       -0.11131084       1.34112954      -0.59739542
H       -1.04816175       2.25665092       1.05022764
H       -0.89282292       1.98005497       0.47386831
H       -0.81006324       2.00093865       0.49278182
