21
Properties=species:S:1:pos:R:3 pbc="F F F"
H        0.00000000       0.00000000       0.00000000
H        0.05739931      -0.52769721       0.81627315
H        0.72413015       0.72254789      -0.08296918
H       -0.21112587       0.99825430       0.11062571
H       -0.24443066       1.21609282       1.05904436
H        0.60492229       1.36410642       0.61415476
H        0.90178317      -0.22961354       0.43288407
H        0.81363052      -0.09620762       1.35964680
H       -0.09621641       0.40243202       1.57290196
H        1.23186207       0.64707583       0.85215437
H        0.67024207       0.93261683       1.54306483
H       -0.69771737       0.30143756       0.68595088
H       -0.13166015       0.14254874       1.57016349
H       -1.32152534      -0.25434124       0.18591648
H       -0.44526058       0.09274924       0.43035296
H       -1.15921128      -0.96342117       0.83315736
H       -0.16202873      -1.19303465       0.75423712
H       -1.32134128      -0.05182850       1.27591753
H        0.28774527      -0.77702993       0.06650078
H       -0.84516561      -0.90062761       1.30520475
H       -1.22024322      -0.20330930       2.23241830
