21
Properties=species:S:1:pos:R:3 pbc="F F F"
H        0.00000000       0.00000000       0.00000000
H        0.02715597      -1.02162731       0.09414954
H        0.57278454      -0.49897972      -0.60909599
H       -0.91406006      -0.62271613       0.18528789
H        0.09839833      -0.48208073      -1.45923305
H       -0.65237427      -1.17849493      -0.57015330
H       -0.77163160       0.37845421      -0.45762211
H       -0.57909644      -0.67951524      -1.40304613
H       -1.19166505      -0.38388479      -0.73084259
H        0.12003356       0.27157995      -0.84312564
H        0.18281084      -1.14306331      -0.89516401
H       -0.86908346      -0.52595156       0.14626260
H       -0.74714714      -0.01241970      -1.34728587
H        0.43108729      -1.80467772      -0.96914154
H        0.29875222      -1.40576649      -0.03282893
H        0.20584442      -1.04507613      -1.70153368
H       -0.71113324      -2.00714970      -0.82320237
H        0.05336076      -1.14475524      -0.55084389
H       -0.00356501      -1.06506610      -0.70412213
H        0.25656974      -1.29358983      -0.14362445
H        1.34815896       0.59629369      -0.58867860
