21
Properties=species:S:1:pos:R:3 pbc="F F F"
H        0.00000000       0.00000000       0.00000000
H        0.63848275      -0.52769721      -0.51179713
H        0.19545926       0.12438690      -0.99982375
H        0.89256084      -0.19475858       0.46768385
H        1.39722824       0.63697243       0.42774287
H        0.80150795       0.87804759      -1.11279023
H        0.37994432       0.65478486       0.56242764
H        1.61906457       0.62740397      -0.64712954
H        0.01885621       1.01772034      -0.35779455
H        1.69227457      -0.14134267      -0.17335337
H        1.17435527      -0.12000453      -1.19204986
H        1.67272997      -0.38419640      -0.33464140
H        0.87154293       1.12444592      -0.13457316
H        0.13680023       0.85711861      -0.44484514
H        0.31383651      -1.01882446       0.98388588
H       -0.69286078      -1.21358299       0.93968654
H       -0.06740034      -1.43142152       0.22595936
H       -0.10304627      -1.42818642       1.76279056
H        0.72859681      -1.75063562       1.47428083
H        0.57138729      -2.56429648       0.96310359
H       -0.02434307      -2.36535025       1.80372190
