5
Properties=species:S:1:pos:R:3 pbc="F F F"
H        0.00000000       0.00000000       0.00000000
H       -0.32983679       0.96807545      -0.08579928
H        0.12554862       0.37845421       0.88829666
H        0.52914780      -0.20473659       0.22117066
H       -0.18228741       0.04964483      -0.37350616
