21
Properties=species:S:1:pos:R:3 pbc="F F F"
H        0.00000000       0.00000000       0.00000000
H        0.49089283       0.77460212       0.32722577
H       -0.45369256       0.99244058       0.41869038
H        0.46550673       1.39135170       0.64065075
H       -0.67571247       0.77136850       0.04155969
H        0.73394406       0.63587439       0.07106809
H        0.35009301       0.78918093       0.06857155
H        1.40991807       0.22517416       0.23728222
H        0.48582059       1.26172841      -0.51661897
H        1.05579221       0.94521868       0.29451615
H       -0.44761017      -0.74181414       0.05926200
H        0.00000000       0.51458907       0.20149380
H        0.39256176       1.03589725      -0.08038157
H        0.41062483       0.34615952       0.13024028
H       -0.00153315       2.54278708       1.38290763
H       -0.04294598       2.47917914       1.44872415
H       -0.00255492       2.44538927       1.51517808
H        0.00498730       2.51165819       1.43293262
H       -0.02253354       2.51165819       1.41628301
H       -0.01427409       2.47917914       1.46607006
H       -0.01427409       2.47917914       1.46607006
