11
Properties=species:S:1:pos:R:3 pbc="F F F"
H        0.00000000       0.00000000       0.00000000
H        0.50421435      -0.31530851      -0.77097952
H        1.03885317      -1.07491016      -0.22207707
H        0.60301900       0.37845421       0.66422993
H        0.51042646      -1.60260737       0.40271229
H        1.32517433      -0.98789281       0.51058209
H        0.53554744       0.58474553       0.73170280
H        1.46393454      -1.45112658       0.52895343
H       -0.41976756      -0.26189262      -0.32743913
H       -0.01714781       0.68021107      -0.38795224
H       -0.13974172      -0.19963658      -0.78657448
