21
Properties=species:S:1:pos:R:3 pbc="F F F"
H        0.00000000       0.00000000       0.00000000
H        0.24483983      -0.86484438      -0.37437752
H        0.05361497      -0.12438690      -1.01733828
H        0.20738403      -0.05391848      -1.08509803
H        0.43746448      -0.60990006      -0.62024808
H        0.47726741      -0.79439902      -0.44098738
H       -0.48189452       0.53470695       1.31600380
H       -0.53445315       0.48574555       1.31469059
H       -0.47522315       0.58302408       1.29778504
H       -0.48798528       0.48574555       1.33263719
H       -0.48189452       0.53470695       1.31600380
H       -0.47522315       0.58302408       1.29778504
H       -0.52778238       0.53470695       1.29828119
H       -0.48798528       0.48574555       1.33263719
H       -0.52047575       0.58302408       1.28030777
H       -0.47522315       0.58302408       1.29778504
H       -0.52778238       0.53470695       1.29828119
H       -0.44091684       0.48574555       1.34894168
H       -0.53445315       0.48574555       1.31469059
H       -0.47522315       0.58302408       1.29778504
H       -0.48798528       0.48574555       1.33263719
