18
Properties=species:S:1:pos:R:3 pbc="F F F"
H        0.00000000       0.00000000       0.00000000
H        0.42017129      -0.49897972       0.72286665
H        0.57347733      -0.77460212       0.13847838
H        1.09396148      -1.04244351       0.84960073
H       -0.46078166       0.39891118      -0.82575667
H       -0.69402874       0.03305909       0.10433573
H       -1.20212996       0.41672364      -0.11624318
H        1.18114781      -0.16259587       1.25743341
H       -1.12900484      -0.60490370      -0.05101816
H       -0.90186274       0.33374161      -0.17516482
H       -0.66995323       0.06534225       0.57617062
H        0.54751396      -0.66157556       0.71191686
H        0.72951663      -0.10917996       2.17748785
H       -0.22549957      -0.30393854       1.85602713
H        0.05376190      -0.10917996       2.82422447
H       -0.36436167       0.57275081       1.34080195
H       -0.27085015       0.15501191       1.88712597
H        0.59623438      -1.00015783       1.35587156
