6
Properties=species:S:1:pos:R:3 pbc="F F F"
H        0.00000000       0.00000000       0.00000000
H       -0.19310522      -0.77460212      -0.55746114
H       -0.31487477      -0.49897972       0.77455407
H       -0.37772936      -1.38450217       0.17874318
H       -0.80654037      -0.44427392       0.02123804
H        0.45809102      -0.88552248       0.20075229
