6
Properties=species:S:1:pos:R:3 pbc="F F F"
H        0.00000000       0.00000000       0.00000000
H       -0.06381270       0.34709048       0.90747839
H        0.70756614      -0.04014379       0.58597839
H        0.55468082       0.89850152       0.79486114
H        0.69543058       0.64535040      -0.10540521
H       -0.26703709       0.84508562       0.18228436
