6
Properties=species:S:1:pos:R:3 pbc="F F F"
H        0.00000000       0.00000000       0.00000000
H        0.42017129      -0.49897972       0.72286665
H       -0.12096557      -0.81366080      -0.52094567
H        0.19552568      -1.31283379       0.18545187
H        0.75564897      -0.55239564      -0.24559891
H       -0.53847849      -0.72859323       0.43722343
