6
Properties=species:S:1:pos:R:3 pbc="F F F"
H        0.00000000       0.00000000       0.00000000
H       -0.12270200      -0.91159266      -0.45526573
H       -0.95281839      -0.05341591       0.37763453
H       -0.32549068      -0.82719946       0.49332026
H       -1.02786291      -0.90221500      -0.09350169
H       -0.77107352      -0.10760486      -0.59421593
