6
Properties=species:S:1:pos:R:3 pbc="F F F"
H        0.00000000       0.00000000       0.00000000
H       -0.73394406      -0.63587439       0.07106813
H       -0.26298407      -0.51786631      -0.77292931
H        0.05405574      -0.89379078       0.38246167
H       -0.21961923      -1.39277053      -0.40759033
H        0.61545932      -0.78205818      -0.31264275
