21
Properties=species:S:1:pos:R:3 pbc="F F F"
H        0.00000000       0.00000000       0.00000000
H       -0.33764970       0.29845181       0.92208624
H       -0.86456466      -0.25732699       0.32081145
H       -1.24689102       0.52806532       0.50509501
H       -0.85020375       0.27037022      -0.49735129
H       -0.27261972       0.82614899       0.05543029
H       -1.15892529       0.57550538       0.37118512
H        0.67265558       0.07373038       1.49753201
H        0.67265558       0.07373038       1.49753201
H        0.67265558       0.07373038       1.49753201
H        0.67265558       0.07373038       1.49753201
H        0.67265558       0.07373038       1.49753201
H        0.67265558       0.07373038       1.49753201
H        0.67265558       0.07373038       1.49753201
H        0.67265558       0.07373038       1.49753201
H        0.67265558       0.07373038       1.49753201
H        0.67265558       0.07373038       1.49753201
H        0.67265558       0.07373038       1.49753201
H        0.67265558       0.07373038       1.49753201
H        0.67265558       0.07373038       1.49753201
H       -0.16638291      -0.46207321      -0.47589964
