6
Properties=species:S:1:pos:R:3 pbc="F F F"
H        0.00000000       0.00000000       0.00000000
H        0.45934626      -0.55622131       0.73002923
H        0.80475074       0.39891118       0.49655822
H        0.35088253       0.24743038       1.34456646
H       -0.13949965       0.70907992       0.65253848
H       -0.42125610      -0.18477097       0.85817474
