6
Properties=species:S:1:pos:R:3 pbc="F F F"
H        0.00000000       0.00000000       0.00000000
H       -0.37664786      -0.36585209      -0.88182342
H       -0.36642134       0.55622131      -0.78081822
H       -1.21904969       0.08656028      -0.75836658
H       -0.84895337       0.46966103       0.08220451
H       -0.76899034      -0.53626204      -0.10500822
