6
Properties=species:S:1:pos:R:3 pbc="F F F"
H        0.00000000       0.00000000       0.00000000
H        0.50421435      -0.31530851      -0.77097952
H        0.96160352      -1.10104561      -0.18999803
H        0.95310330      -0.11800810       0.16040257
H       -0.01182276      -1.00080276      -0.31069234
H        0.30638278      -0.78825402       0.59150207
