13
Properties=species:S:1:pos:R:3 pbc="F F F"
H        0.00000000       0.00000000       0.00000000
H        0.93511528      -0.39891118      -0.14054634
H        1.00322747      -0.73126340       0.82807475
H        0.11766708      -0.98365670       0.25185454
H        0.17182249      -0.37326619       0.99819708
H        0.90923738       0.23696321       0.59637630
H        0.84374774       0.33235219       0.48057857
H        1.63250756      -0.69736302      -0.83184546
H        2.02609921      -1.18468285       0.04663748
H        1.87133729      -0.22421998       0.00637979
H        1.25790954      -0.85233068       0.64056551
H        1.06239033      -1.40198064      -0.24651837
H        0.74042058      -1.39966142      -0.28429466
