6
Properties=species:S:1:pos:R:3 pbc="F F F"
H        0.00000000       0.00000000       0.00000000
H        0.44047090       0.80291802      -0.09821343
H        0.00000000       0.58319080       0.77971113
H        0.50540370      -0.21783850       0.80322742
H        1.03126991       0.57330447       0.70897800
H        1.02296233      -0.01781246      -0.08096052
