6
Properties=species:S:1:pos:R:3 pbc="F F F"
H        0.00000000       0.00000000       0.00000000
H       -0.78841746      -0.36585209      -0.54577839
H       -0.61486608       0.66108263      -0.36465108
H        0.30360571       0.58582085      -0.78610516
H       -0.44438013       0.23873037      -1.30389500
H        0.13314080      -0.41652873      -0.85597706
