6
Properties=species:S:1:pos:R:3 pbc="F F F"
H        0.00000000       0.00000000       0.00000000
H       -0.81573808      -0.52769721      -0.06456009
H       -0.57626987       0.28314662       0.73198491
H       -0.98025423       0.48468244      -0.10124288
H       -1.47796893      -0.10113841       0.57877022
H       -0.58312631      -0.59618652       0.66541815
