6
Properties=species:S:1:pos:R:3 pbc="F F F"
H        0.00000000       0.00000000       0.00000000
H       -0.33100656      -0.58582085      -0.77496612
H       -0.17788114       0.18554765      -1.43441069
H        0.53859180      -0.07864422      -0.74870449
H        0.07906055       0.77015489      -0.62051690
H       -0.78517795       0.32577181      -0.64827365
