6
Properties=species:S:1:pos:R:3 pbc="F F F"
H        0.00000000       0.00000000       0.00000000
H        0.15607943       0.96046287      -0.03480161
H       -0.47438622      -0.01689900      -0.85013705
H       -0.31830680       0.97736186      -0.88493866
H       -0.80127293       0.53887981      -0.12053722
H        0.42746323       0.33019149      -0.73073530
