6
Properties=species:S:1:pos:R:3 pbc="F F F"
H        0.00000000       0.00000000       0.00000000
H       -0.02481474      -0.91159266      -0.47085762
H        0.43208554      -0.46354809       0.80730981
H       -0.35956746      -0.89469367       0.44331741
H        0.37867260      -1.37514079       0.35111868
H        0.84150779      -0.51268148      -0.09180722
