17
Properties=species:S:1:pos:R:3 pbc="F F F"
H        0.00000000       0.00000000       0.00000000
H        0.14728610      -1.02954066      -0.28719354
H        0.98863763       0.26419187      -0.07824395
H        0.38139910      -0.23514163      -0.89336604
H        1.09401333      -0.74173117      -0.25242388
H        0.67084694      -0.40605408       0.63105381
H        0.10241765      -0.90110219      -0.06546569
H        1.55232990       1.12183428      -0.08319070
H        1.30832386       1.14056015      -1.13401783
H        1.66130757       0.37088108      -0.77161682
H        0.55438328       1.21078932      -0.30570677
H        1.25736403       1.22860181      -1.05325258
H        0.43729475      -0.86898071      -1.95397997
H        0.19477606      -0.03141874      -1.41268659
H        0.74107075      -1.27834272      -1.12439942
H       -0.16273740      -0.78458750      -1.19181180
H        1.07554150      -0.45961875      -1.34314060
