11
Properties=species:S:1:pos:R:3 pbc="F F F"
H        0.00000000       0.00000000       0.00000000
H       -0.02074104      -0.97334045      -0.01546210
H        0.81283760      -1.13300943      -0.59250307
H        0.22020043      -0.01689900      -0.94830745
H        1.21827054      -0.14128590      -0.74408209
H        0.91841549       0.12438690       0.44086811
H        1.12248659      -0.90515375       0.19081151
H        1.34335613       0.55587649      -0.38772473
H        0.46495852      -0.85533237       0.82014006
H        0.33457005       0.57368892      -0.57576048
H        0.58110338       0.14292192       0.61199933
