21
Properties=species:S:1:pos:R:3 pbc="F F F"
H        0.00000000       0.00000000       0.00000000
H        0.80713278      -0.08439321       0.53802919
H        1.22742236      -0.64061451      -0.21516299
H       -0.55729049       0.26419187       0.82033759
H       -0.54892564      -0.73406243       1.05854380
H        0.37918040      -0.97907329       0.80209029
H        0.14244287      -1.32616377      -0.07628566
H       -0.71403134      -1.06239128       0.21398586
H        0.10326975      -0.58582085      -0.83634514
H       -0.86575365      -0.67933762      -0.37118340
H       -0.58666068      -0.46853983       0.26304090
H        0.56626254      -1.49109781       0.13127142
H        2.21815968       0.12808394       0.60796678
H        1.90227604      -0.70947802       1.10999393
H        2.14422512       0.08291733       0.72609907
H        2.48369360      -0.57233346       0.14894462
H        2.34848022      -0.60422754       0.37244445
H        2.22250962       0.29896128       0.39883924
H        1.14084721      -0.48430386       2.32011700
H        1.14084721      -0.48430386       2.32011700
H        1.14084721      -0.48430386       2.32011700
