8
Properties=species:S:1:pos:R:3 pbc="F F F"
H        0.00000000       0.00000000       0.00000000
H        0.05321160       0.83173102       0.50344110
H        0.26784176       0.52769721      -0.77321243
H        0.33553126       1.38795233      -0.31156653
H        1.02974820       0.67206210       0.77584863
H        1.25505376       0.33293861      -0.57120883
H        0.97951466      -0.19475858       0.23652481
H        1.26481450       1.20318139      -0.08717118
