9
Properties=species:S:1:pos:R:3 pbc="F F F"
H        0.00000000       0.00000000       0.00000000
H        0.35866648      -0.83756196      -0.47241095
H       -0.49022913      -1.36351347      -0.23560901
H       -0.06093610      -0.43977645       0.86657047
H        0.61941636      -1.08820558       0.43160680
H       -0.17855734      -1.64398432       0.48068616
H       -0.99834472      -0.63170224       0.15724196
H       -0.71955419      -0.89657581       0.93016016
H       -0.39229602       0.12195843       0.04427553
