21
Properties=species:S:1:pos:R:3 pbc="F F F"
H        0.00000000       0.00000000       0.00000000
H       -0.56912082      -0.52595156       0.67290437
H       -0.81840396       0.46354809      -0.41068476
H        0.07392955       0.74740851       0.69945610
H       -0.67416990       0.34849733       1.27785134
H       -0.73212934       1.21720874       0.19973570
H       -1.42245030      -0.03543162       0.16742271
H       -1.37747777      -0.21064305       0.23108926
H       -0.35894716      -1.04824448       0.83092070
H        0.10649186      -2.44498634       1.11811221
H       -0.50793368      -0.95911211       0.56194413
H       -1.02243328      -0.32899612      -0.01432323
H       -0.69410586      -0.63109297       0.14206731
H       -0.57588577      -0.28572249       1.42252672
H       -0.73053432       0.47926307       0.20834184
H       -0.25595364       0.36840963       0.22902296
H       -0.60204667       0.27856344       0.42353117
H       -0.49264222       0.28811103       0.03395185
H       -0.36942315      -1.32484043       0.23408705
H       -0.32344845      -1.38186288       0.88789153
H       -0.89124227      -0.82608408       0.32505858
