9
Properties=species:S:1:pos:R:3 pbc="F F F"
H        0.00000000       0.00000000       0.00000000
H        0.42017129      -0.49897972       0.72286665
H        0.10496442      -0.70907992      -0.65897578
H        0.20257901      -1.31058264       0.03167874
H        1.37518752      -0.30422115       0.40140596
H        1.17418456      -1.15091372      -0.25782502
H        1.07067382      -0.51432133      -0.94672275
H        1.18329883       0.33165324      -0.31056550
H        0.91843849       0.21783850      -0.23891024
