12
Properties=species:S:1:pos:R:3 pbc="F F F"
H        0.00000000       0.00000000       0.00000000
H       -0.46163812      -0.66108263       0.54582143
H        0.64258742       0.18477097       0.70781487
H        0.15322796      -1.32216525       0.18117034
H        0.69315028      -1.16249633       1.03925753
H       -0.07264733      -0.63654476       1.47543740
H        0.45563886      -0.69681674      -0.60013628
H        0.44039923       0.13482374       1.03373861
H        1.36889482      -0.54778177       0.57147646
H        0.64901966      -0.62305140       1.05134034
H        0.30402827      -0.71188885       0.25481522
H        0.02820131      -0.61242354       0.27063113
