18
Properties=species:S:1:pos:R:3 pbc="F F F"
H        0.00000000       0.00000000       0.00000000
H        0.63883960       0.60990006      -0.40983751
H        1.05519724      -0.26678932      -0.74358284
H       -0.73258382       0.63587439      -0.08393791
H       -0.04055297       0.87409192      -1.13230002
H       -0.24232852      -0.43148959      -0.89912045
H        0.49246764      -0.02969405      -1.43311822
H       -1.03862298       0.74970502      -0.92807460
H       -0.88165331       0.31591892      -1.19232404
H        0.11034864      -0.81261158      -0.44389978
H       -0.49705553      -0.22246844      -0.69377506
H       -0.12451124      -0.16414893      -0.75393534
H        0.01361370       0.01095086      -0.78931385
H        1.55261087       0.85128868       0.11062476
H        1.52937472       0.37966213       0.27502817
H        1.75865340       1.59310281      -0.29113802
H        2.00381112       0.66400510      -0.44841507
H        1.68285573       0.66400510      -0.57237291
