12
Properties=species:S:1:pos:R:3 pbc="F F F"
H        0.00000000       0.00000000       0.00000000
H       -0.43620220       0.58582085      -0.72101700
H       -1.33797848       0.50142765      -0.36361217
H       -1.36902690      -0.27317446      -0.95275438
H       -0.90774620      -0.46354809       0.12018238
H       -0.93027186      -0.14481074       0.39814800
H       -2.07846737       0.62525457       0.01653373
H       -0.66759920      -0.14599037      -1.32015705
H       -1.88095140       0.01535451      -0.71631706
H       -0.46028394      -0.85507029      -0.68589604
H       -1.77234471      -0.20647645      -0.38667011
H       -0.02774006       0.11989599      -0.84860373
