8
Properties=species:S:1:pos:R:3 pbc="F F F"
H        0.00000000       0.00000000       0.00000000
H        0.19410905      -0.89379078       0.33394706
H       -1.01400745      -0.12438690       0.09818678
H       -0.96861458      -0.68060821      -0.76313853
H        0.27575621      -1.17693734      -0.59407377
H       -0.70273268      -1.09985423       0.29457095
H       -0.58522344      -1.46570635      -0.65709484
H       -0.00994611      -0.29708970      -0.89788812
