8
Properties=species:S:1:pos:R:3 pbc="F F F"
H        0.00000000       0.00000000       0.00000000
H        0.46564069       0.84879911      -0.10382564
H       -0.47089481       0.34709048      -0.77836186
H        0.64637601      -0.46966103      -0.55648661
H        0.09727234       0.93775409      -1.05761588
H        1.14126003       0.26297826      -0.60748857
H        0.14804178      -0.23873037      -1.35024929
H        0.73853976       0.32303953      -1.57164514
