9
Properties=species:S:1:pos:R:3 pbc="F F F"
H        0.00000000       0.00000000       0.00000000
H        0.75986940       0.40936196      -0.45064643
H        0.09135711       1.07960796      -0.84711283
H       -0.36577094       0.37052804      -1.33322036
H        0.48641726      -0.20053810      -1.15867662
H       -0.55318034       0.71375585      -0.13714981
H       -0.31325701      -0.63587439      -0.66752881
H       -0.95218718       0.02520823      -0.98815155
H       -0.99964386       0.15753454      -0.87512815
