9
Properties=species:S:1:pos:R:3 pbc="F F F"
H        0.00000000       0.00000000       0.00000000
H        0.88292891      -0.28314662      -0.29719594
H        0.88292891      -0.86896747       0.54550076
H       -0.37182274      -0.83173102      -0.34355825
H       -0.33949319      -1.14703953       0.57709169
H       -0.06395811      -0.75095940       0.73925310
H        0.53874552      -1.08237457      -0.58042127
H        0.62662929      -1.58135426       0.25105733
H       -0.35465670      -1.70574117       0.52478993
