8
Properties=species:S:1:pos:R:3 pbc="F F F"
H        0.00000000       0.00000000       0.00000000
H       -0.47549847       0.19475858       0.88842231
H        0.59898126       0.81647241       0.16708747
H       -0.64126724       0.61471456      -0.51402944
H        0.11425683       0.96936071       0.90395194
H       -1.11412382       0.78057945       0.33860838
H       -0.01156896       1.47305739      -0.33837336
H       -0.49412492       1.55255151       0.41628295
