8
Properties=species:S:1:pos:R:3 pbc="F F F"
H        0.00000000       0.00000000       0.00000000
H        0.63772744       0.77136850       0.22719663
H       -0.80183977       0.55622131       0.31779659
H       -0.46708700       0.57312030       1.23197150
H        0.21194506      -0.15966894       0.99141765
H        0.12230495       1.34772241       1.20609415
H        0.92230952       0.65125698       1.03510869
H       -0.21054983       1.39378333       0.27100000
