21
Properties=species:S:1:pos:R:3 pbc="F F F"
H        0.00000000       0.00000000       0.00000000
H        0.14728610      -1.02954066      -0.28719354
H        0.89628154       0.33235219      -0.37355778
H        0.33358639      -0.69718850      -1.24016690
H        1.33863544      -0.85685742      -1.10710192
H        0.51963365       0.69820428      -1.25538123
H       -0.41637546       0.39975247      -0.95850182
H        0.65445095      -0.25746101      -1.60445428
H       -0.11789149      -0.01704371      -0.48975959
H       -0.63722193       1.13156366      -0.35539305
H        1.11539793      -1.34260297      -2.50860691
H        0.84724236      -2.21929240      -2.04726958
H        1.81626594      -2.12577558      -1.58210802
H        1.05357838      -0.81665140      -1.62947249
H        0.15458214      -1.74963140      -1.54957366
H        0.95529306      -1.49898779      -1.05550814
H        0.08343613      -1.02884591      -2.48143291
H        1.34913468      -1.65376782      -0.94388008
H       -0.28249940      -1.60874128      -1.58127546
H       -0.28789663      -1.61466670      -1.72496104
H       -0.66796649      -1.85500360      -3.40215707
