21
Properties=species:S:1:pos:R:3 pbc="F F F"
H        0.00000000       0.00000000       0.00000000
H        0.87909138       0.39891118       0.34841394
H        0.78019595       0.14826760       1.28407323
H        1.39148939      -0.45873123       0.11342086
H        0.31621471      -0.79461014       0.46547160
H        0.15051095      -0.57677162       1.39989626
H        1.20993507      -1.25815821       0.26619548
H        1.39148939      -0.47563022       1.08695841
H        1.24551439      -1.09848928       1.27939034
H        0.34652108      -0.60344124       1.27150130
H        1.10755432      -0.21473382      -0.08765541
H        1.11431646      -0.17604525      -0.08819058
H        0.17209685      -1.46290445       0.47855830
H       -0.71474087      -1.29504740       1.06971824
H       -0.08709335      -2.06374598      -0.05507565
H        0.27688700      -1.58133435       0.31861535
H       -1.58680189      -1.67350161       1.28029585
H       -1.59365475      -1.67350161       1.24956191
H        0.93184173       0.27774018      -0.46760938
H        0.22211757      -2.40089440      -0.52788109
H       -0.41856241      -1.72102034       0.47172129
