9
Properties=species:S:1:pos:R:3 pbc="F F F"
H        0.00000000       0.00000000       0.00000000
H       -0.93989587      -0.24138860      -0.47165081
H       -0.41587076       0.52595156       0.77701372
H       -0.15622571      -0.85764241       0.54163367
H       -1.06706929      -0.45873123       0.79571617
H       -1.26400876       0.33119297       0.23290431
H       -0.75591671      -1.12183428      -0.24823803
H       -0.39292818      -0.33239126       1.43035018
H       -1.24407828      -0.68205786       0.47034103
