8
Properties=species:S:1:pos:R:3 pbc="F F F"
H        0.00000000       0.00000000       0.00000000
H       -0.47398776      -0.23709527       0.75329894
H       -0.42038047       0.74222386       1.05559707
H        0.03731550       0.90665692       0.35304630
H       -1.34069836      -0.04233669       0.23928952
H       -1.39475417       0.85145408       0.62175119
H       -0.88485402       1.13460064      -0.15792233
H       -0.79876155       0.21783850      -0.51243269
