10
Properties=species:S:1:pos:R:3 pbc="F F F"
H        0.00000000       0.00000000       0.00000000
H        0.38154608      -0.49897972      -0.74397767
H       -0.12231959      -0.89468008       0.48775959
H        0.83145565      -0.91157907       0.68292135
H        1.05288208      -1.36519635      -0.27066606
H        0.99819291      -0.06610137       0.35779995
H        1.29530978      -0.58337295      -0.41844037
H        0.14826059      -1.24718821      -0.61095262
H       -0.13635041      -1.45045888      -0.31159884
H        0.70632279      -1.49839628       0.05710408
