8
Properties=species:S:1:pos:R:3 pbc="F F F"
H        0.00000000       0.00000000       0.00000000
H       -0.32983679       0.96807545      -0.08579928
H        0.15129681      -0.15148079      -0.94985455
H        1.11131144       0.00000000      -0.89080870
H       -0.34661433       0.78330445      -1.04164398
H        0.80459237       0.97931916      -0.90427530
H        0.56806839       0.92864251       0.03888386
H        0.45782876       0.64844042      -0.91950005
