9
Properties=species:S:1:pos:R:3 pbc="F F F"
H        0.00000000       0.00000000       0.00000000
H       -0.96783787       0.05067664       0.09371616
H       -0.05157401      -0.97187352       0.02937531
H       -0.03363000      -1.06082857      -0.99292064
H       -0.08521950      -0.05067664      -0.96862298
H       -1.07456565      -0.91845763       0.09229439
H       -1.15988791      -0.90155864      -0.87749708
H       -1.02475059       0.11082101      -0.97823972
H       -0.99287599      -1.14522183      -1.13709378
