21
Properties=species:S:1:pos:R:3 pbc="F F F"
H        0.00000000       0.00000000       0.00000000
H       -0.04850490       0.68549418       0.68978679
H       -0.89212191       0.11800810      -0.37182432
H       -0.90754914       1.04541504       0.06749594
H       -1.30114079       0.55809522       0.94597888
H       -0.36727753      -0.81647241       0.50180066
H       -0.40059149       0.37332425       1.26680839
H       -1.25888395      -0.55223787       0.31343460
H       -0.56593245      -0.13097823       1.03470039
H        0.01559901       1.47690463       0.18971756
H       -0.56291801       0.84448200       0.32941279
H       -0.44393224       0.62810552       0.31790516
H        0.04362547      -0.91882432      -0.00169539
H        1.08416009      -1.48139143      -0.83577055
H        1.08416009      -1.48139143      -0.83577055
H        1.08416009      -1.48139143      -0.83577055
H        1.08416009      -1.48139143      -0.83577055
H        1.08416009      -1.48139143      -0.83577055
H        1.08416009      -1.48139143      -0.83577055
H        1.08416009      -1.48139143      -0.83577055
H        1.08416009      -1.48139143      -0.83577055
