9
Properties=species:S:1:pos:R:3 pbc="F F F"
H        0.00000000       0.00000000       0.00000000
H        0.45934626      -0.55622131       0.73002923
H       -0.28376624       0.69681674       0.69803083
H        0.60491168       0.61242354       1.08686268
H        0.89294863       0.37845421       0.08646455
H        1.37457561      -0.24091280       0.62516433
H        1.06641221       0.28678441       1.38320911
H        0.16606671      -0.08656028       1.53094530
H       -0.14801784      -0.03591496       1.23933899
