21
Properties=species:S:1:pos:R:3 pbc="F F F"
H        0.00000000       0.00000000       0.00000000
H        0.54628479      -0.64623839      -0.66938484
H        0.67972535       0.12836373      -1.24405527
H        1.12594402       0.52727491      -0.41033906
H        0.87757719       0.28314662       0.31264544
H        1.66020036      -0.37434918      -0.15387937
H       -0.17617391       0.77136850      -0.65366453
H        0.01027104       1.64724445      -1.34543800
H        0.17975710       1.44913077      -1.48698461
H        0.97272509      -0.68965769       0.45932475
H        0.43043643      -0.94030130      -0.30954561
H       -1.32975376       0.79740208       0.30475903
H       -1.39267397       0.84943795       0.22042519
H       -1.41959476       0.90137970       0.17519122
H       -1.89792395       1.59120822      -0.55213791
H       -1.89792395       1.59120822      -0.55213791
H       -1.89792395       1.59120822      -0.55213791
H       -1.89792395       1.59120822      -0.55213791
H       -1.89792395       1.59120822      -0.55213791
H       -1.89792395       1.59120822      -0.55213791
H       -1.89792395       1.59120822      -0.55213791
