21
Properties=species:S:1:pos:R:3 pbc="F F F"
H        0.00000000       0.00000000       0.00000000
H       -0.21671417       0.94706190      -0.06457304
H       -0.95501620      -0.19475858      -0.32146075
H        0.50317383       1.07782757       0.72838897
H       -0.06326008       0.49200672       1.35232031
H       -0.98203421       0.74231571       0.66788280
H       -1.16876638      -0.10580358       0.67840016
H       -1.06602287       0.77067256      -0.38213253
H        0.22986272      -0.37677896       1.26498020
H        0.72621131      -0.01092687       0.44454485
H       -0.52382314      -0.39459142       0.56858653
H       -0.96721601       0.44133008       1.71058893
H       -0.38822538       0.49308205       0.56223387
H        1.52075505      -0.73445868      -0.60197395
H       -1.48897386       1.79677105       2.08548665
H        1.62667120      -0.53970009       0.40011126
H       -1.92788959       1.64529026       1.22964358
H       -0.82645625       1.07422316       1.78164649
H       -1.96343541       0.63936722       1.43009102
H        2.80750942      -1.43812919       0.18000510
H        2.88946509      -2.02131987       0.95539701
