10
Properties=species:S:1:pos:R:3 pbc="F F F"
H        0.00000000       0.00000000       0.00000000
H        0.05110265      -0.33235219      -0.96966726
H        0.67411071      -1.07976067      -0.64322364
H        1.03226852      -0.46986061       0.02595937
H        0.09955502      -1.16871572       0.20252848
H        0.68986261      -0.46409816       0.76748711
H       -0.67260575      -0.49917299       0.38310003
H        0.46361548       0.22239321      -0.18794776
H        0.01310784       0.30727035       0.78530759
H        0.22275931      -0.58356619       0.00992426
