11
Properties=species:S:1:pos:R:3 pbc="F F F"
H        0.00000000       0.00000000       0.00000000
H       -0.30820453      -0.91843063       0.09775501
H        0.85205191      -0.33235219      -0.46569690
H        0.56970376      -0.15966894       0.83861029
H        1.34802079       0.49937883      -0.36421162
H        1.17893863      -0.88813102       0.26390293
H        1.57575870       0.08337411       0.42535371
H        0.28649437      -0.90244508       0.80090195
H        1.45686448       0.21878527       0.70527148
H        0.46949422      -1.00282383      -0.48200649
H        0.65279323       0.21623221       0.25590724
