8
Properties=species:S:1:pos:R:3 pbc="F F F"
H        0.00000000       0.00000000       0.00000000
H        1.00909960       0.15966894       0.09771150
H        1.15822136      -0.51057702      -0.66508400
H        1.00729132       0.19850290      -1.31507385
H        0.19939089      -0.66205782      -0.74096888
H        0.92732626       0.86874884      -0.56454206
H        0.04379749       0.08049480      -1.39132774
H       -0.09193999       0.77979386      -0.64521003
