8
Properties=species:S:1:pos:R:3 pbc="F F F"
H        0.00000000       0.00000000       0.00000000
H        0.36329272       0.89468008       0.34769225
H        0.45983347       0.19475858      -0.89663047
H        1.38346374      -0.17109351      -0.63898122
H        0.72934371       1.08854938      -0.61992991
H        0.88077819      -0.49504808       0.18022506
H        1.21365190       0.35375103       0.52197951
H        1.61335874       0.60439461      -0.32976758
