11
Properties=species:S:1:pos:R:3 pbc="F F F"
H        0.00000000       0.00000000       0.00000000
H        0.97460508       0.08895500       0.30912116
H       -0.31766176       0.08895500       0.97185487
H        0.00841589       0.96046287      -0.15969068
H       -1.26484704       0.10676746       0.57708085
H        0.70227253       1.07833779       0.32587096
H        0.67604184       0.10402708       1.12446642
H        0.51827824       1.11640668       1.06512129
H       -0.34400645       1.01387882       0.80273813
H       -0.55817342       0.74264187       0.36651734
H       -0.31880194       0.32460594       0.50220782
