21
Properties=species:S:1:pos:R:3 pbc="F F F"
H        0.00000000       0.00000000       0.00000000
H       -0.06381270       0.34709048       0.90747839
H        0.72821784      -0.04014379       0.64087903
H        0.77555311       0.85364699       0.25752759
H        0.52171010       0.97757655       0.34808722
H       -0.23905887       0.79461014      -0.50941771
H        0.51293129       0.98936874       0.16133106
H       -0.18507814      -1.16752863       0.26022968
H       -0.18507814      -1.16752863       0.26022968
H       -0.18507814      -1.16752863       0.26022968
H       -0.18507814      -1.16752863       0.26022968
H       -0.18507814      -1.16752863       0.26022968
H        0.23002827      -0.28768098       0.30042458
H       -0.19787431      -1.16752863       0.29251596
H       -0.51935250      -0.85024804       1.40352106
H       -0.51935250      -0.85024804       1.40352106
H       -0.51935250      -0.85024804       1.40352106
H       -0.51935250      -0.85024804       1.40352106
H       -0.51935250      -0.85024804       1.40352106
H       -0.51935250      -0.85024804       1.40352106
H       -0.51935250      -0.85024804       1.40352106
