9
Properties=species:S:1:pos:R:3 pbc="F F F"
H        0.00000000       0.00000000       0.00000000
H        0.69739223       0.29845181      -0.69129914
H       -0.14149112       0.76199991      -0.32425448
H        0.13524503      -0.53911018      -0.88051927
H       -0.81973660       0.08895500      -0.61109972
H       -0.26820529       0.28371358      -1.45443022
H       -0.15726896       0.26695183      -1.22314394
H       -0.52489483      -0.12888350       0.29093993
H       -0.00005919       0.23696859      -0.51157099
