21
Properties=species:S:1:pos:R:3 pbc="F F F"
H        0.00000000       0.00000000       0.00000000
H        0.24483983      -0.86484438      -0.37437752
H        0.25334513      -0.01689900      -0.93999553
H        1.25193679      -0.48023063      -0.41859433
H        1.13836670       0.48023224      -0.53117216
H        1.02052498       0.08895500       0.06276756
H        0.83065212      -0.07044536      -0.09316933
H        1.65518427       0.96885157      -0.13159332
H        0.94667965       0.24630368       0.03949018
H        1.21612191      -0.46682966      -0.31883085
H        1.30275559       0.11933053      -0.91604608
H        1.00381029       0.95826197      -1.11064780
H        0.98355687       0.95826197      -1.10556865
H        0.97366321       0.99837804      -1.06671643
H        0.19973832      -0.12663496      -0.92237973
H        0.19545788      -0.09097707      -0.96360373
H        0.18094170       0.01995012      -1.05446184
H        0.08699469      -0.42964485       0.49057382
H        0.06972471      -0.42964485       0.49332467
H        0.06972471      -0.42964485       0.49332467
H        0.07176946      -0.41209462       0.50779194
