21
Properties=species:S:1:pos:R:3 pbc="F F F"
H        0.00000000       0.00000000       0.00000000
H        0.79402828      -0.31375703       0.65969908
H        0.98013806      -0.22936383      -0.29229981
H        0.15470350      -1.06116557       0.36649552
H        0.16705054      -0.57645428      -0.70031667
H       -0.24948922      -0.70084119       0.22938567
H        0.54816604      -1.14095652      -0.10329495
H        1.33088732       0.07085672       1.51291764
H        0.58290148      -0.27623376       0.99512786
H        0.69890875      -0.29499537       0.79175246
H        0.39614451      -1.29568613      -0.19877592
H        0.39614451      -1.29568613      -0.19877592
H        1.45019090      -0.67503893      -0.28359559
H        1.45019090      -0.67503893      -0.28359559
H        1.45019090      -0.67503893      -0.28359559
H        1.45019090      -0.67503893      -0.28359559
H        1.43757141      -0.72557652      -0.33466789
H        0.72233665      -0.56651229      -0.79498744
H        0.72233665      -0.56651229      -0.79498744
H        0.69931805      -0.54670238      -0.79555106
H        0.52361608      -0.47649753      -0.85169470
