21
Properties=species:S:1:pos:R:3 pbc="F F F"
H        0.00000000       0.00000000       0.00000000
H       -0.53245163       0.67024595      -0.56620628
H       -1.12445259      -0.07716256      -0.94599497
H       -0.38463169       1.56492603      -1.04685247
H        0.14857316       0.25087777      -1.29040432
H       -0.63541162       0.56618631      -0.80665922
H       -0.02092710      -0.15848419      -2.15744138
H       -0.83799696       0.13996762      -1.61278820
H        0.22436959       2.14795017       0.19379270
H        0.22436959       2.14795017       0.19379270
H        0.22436959       2.14795017       0.19379270
H        0.22436959       2.14795017       0.19379270
H        0.22436959       2.14795017       0.19379270
H        0.22436959       2.14795017       0.19379270
H        0.45784682       3.11602569      -0.05448574
H       -0.01342897       1.17987466       0.43793541
H        0.50658476       3.36425018      -0.12824944
H        0.22436959       2.14795017       0.19379270
H        0.22436959       2.14795017       0.19379270
H        0.22436959       2.14795017       0.19379270
H        0.22436959       2.14795017       0.19379270
