21
Properties=species:S:1:pos:R:3 pbc="F F F"
H        0.00000000       0.00000000       0.00000000
H        0.12256700       0.83228827       0.37498182
H       -0.24331933       0.22961354       0.97025621
H        0.97107506       0.12438690       0.30800152
H        0.56917948       0.78583485       1.25971687
H        0.97923028       0.39251181       0.51915401
H       -1.22059846       0.64898169       0.78809327
H       -0.19666016       0.70239758       0.74313700
H       -0.23107886       0.48931277       0.56745642
H       -2.44448066       1.12740362       0.51519948
H       -2.44448066       1.12740362       0.51519948
H       -2.44448066       1.12740362       0.51519948
H       -2.44448066       1.12740362       0.51519948
H       -2.44448066       1.12740362       0.51519948
H       -2.44448066       1.12740362       0.51519948
H       -2.44448066       1.12740362       0.51519948
H       -2.44448066       1.12740362       0.51519948
H       -2.44448066       1.12740362       0.51519948
H       -2.44448066       1.12740362       0.51519948
H       -2.44448066       1.12740362       0.51519948
H       -2.44448066       1.12740362       0.51519948
