6
Properties=species:S:1:pos:R:3 pbc="F F F"
H        0.00000000       0.00000000       0.00000000
H        0.49089283       0.77460212       0.32722577
H       -0.38668442       1.05774879       0.63987106
H       -0.10124889       0.72539663      -0.28824127
H       -0.16743062       0.36585209       0.94416261
H       -0.88468397       0.37845421       0.14888810
