21
Properties=species:S:1:pos:R:3 pbc="F F F"
H        0.00000000       0.00000000       0.00000000
H       -0.47398776      -0.23709527       0.75329894
H       -0.30767977       0.76115906       0.92404389
H       -1.20088756       0.04605135       0.17062789
H       -0.40568596      -1.03149426       1.39951015
H       -0.43530095      -0.23688412       0.83756840
H       -0.65107417       1.70602942       0.03491712
H       -0.65107417       1.70602942       0.03491712
H       -0.65107417       1.70602942       0.03491712
H       -0.65107417       1.70602942       0.03491712
H       -0.65107417       1.70602942       0.03491712
H       -0.65107417       1.70602942       0.03491712
H       -0.65107417       1.70602942       0.03491712
H       -0.65107417       1.70602942       0.03491712
H       -0.65107417       1.70602942       0.03491712
H       -0.65107417       1.70602942       0.03491712
H       -0.65107417       1.70602942       0.03491712
H       -0.65107417       1.70602942       0.03491712
H       -0.65107417       1.70602942       0.03491712
H       -0.65107417       1.70602942       0.03491712
H       -0.65107417       1.70602942       0.03491712
