6
Properties=species:S:1:pos:R:3 pbc="F F F"
H        0.00000000       0.00000000       0.00000000
H       -0.49101692      -0.19475858      -0.87994057
H        0.15335506       0.55264992      -0.59800231
H       -0.97050285      -0.01689900      -0.07680865
H       -0.41176295       0.82066298       0.12224788
H       -0.90687692       0.67008579      -0.71512103
