21
Properties=species:S:1:pos:R:3 pbc="F F F"
H        0.00000000       0.00000000       0.00000000
H       -0.46163812      -0.66108263       0.54582143
H        0.78775376      -0.08439321       0.56602353
H       -0.18397495       0.36585209      -0.94107884
H        0.03562783      -0.54080486      -0.66213661
H        0.33354223      -0.90665698       0.24930352
H       -0.51645708       0.20376176       0.10186204
H       -0.69234854       0.07390970      -0.28069162
H        0.91783643      -1.02303851       0.78981900
H        0.09102190      -0.34720337       0.63570237
H        0.35601717      -0.55496347      -1.41224504
H        0.02754733      -0.15158805      -0.40732384
H       -0.86496884      -0.79184836       1.53796649
H       -0.29719228      -0.63778943      -0.78596735
H       -0.64977586      -0.71723783       1.60675406
H       -0.76479220      -0.73093420      -0.75973010
H       -0.85562384      -0.73093420      -0.73524940
H       -0.03802259       0.78473896      -1.68766224
H       -0.03802259       0.78473896      -1.68766224
H       -0.04089977       0.81088805      -1.67294466
H       -0.26730925       0.88923192      -0.55126548
