6
Properties=species:S:1:pos:R:3 pbc="F F F"
H        0.00000000       0.00000000       0.00000000
H       -0.77018702      -0.01689900       0.59547228
H       -0.38521782      -0.76430750       0.00682706
H       -0.28035578      -0.87454140       0.87446845
H        0.22540244      -0.04281038       0.85226303
H        0.50917393      -0.85928279       0.29893631
