8
Properties=species:S:1:pos:R:3 pbc="F F F"
H        0.00000000       0.00000000       0.00000000
H        0.13252793       0.60990006       0.74734145
H       -0.37246066       0.95566529       0.03606553
H       -1.01699805       0.58981323       0.74602854
H       -0.58528316      -0.14199799       1.22156572
H       -0.22886333      -0.25064358       0.91261178
H       -0.45884654       0.34095073       0.85337043
H       -0.38367820       0.20257896       0.20078236
