21
Properties=species:S:1:pos:R:3 pbc="F F F"
H        0.00000000       0.00000000       0.00000000
H        0.38154608      -0.49897972      -0.74397767
H       -0.12578812      -1.01237965       0.11219864
H        0.57465255      -1.10133469      -0.63264614
H        0.76838255      -0.22082078      -0.03994799
H        0.51501119      -0.21798062       0.22004201
H       -1.15037298      -1.10589647       0.43717211
H       -0.39349961      -1.02150321      -0.16952497
H       -0.32027817      -0.59480494      -0.13745719
H        0.03464949      -1.47686100      -0.61842662
H       -0.39917922      -0.56007421      -0.20955557
H        0.97477114      -0.43283370      -1.21949697
H        0.97477114      -0.43283370      -1.21949697
H        0.97477114      -0.43283370      -1.21949697
H        0.97262251      -0.40648690      -1.21777463
H        0.29164094       0.14998171      -0.68404752
H        0.29164094       0.14998171      -0.68404752
H        0.25441244       0.14092699      -0.65923125
H       -0.19471496      -0.56061345      -1.77668238
H       -0.19471496      -0.56061345      -1.77668238
H       -0.19471496      -0.56061345      -1.77668238
