21
Properties=species:S:1:pos:R:3 pbc="F F F"
H        0.00000000       0.00000000       0.00000000
H       -0.13959605      -0.55577880       0.78719991
H        0.79461777      -0.29158694       1.12002277
H        0.74344403      -0.24091029       0.14900571
H        0.62041074       0.58728927       0.90655982
H        0.37865984       0.69681674       0.65144998
H        0.09747940      -0.01129675       0.91276687
H       -0.95824820      -0.94039255       1.37542462
H       -0.28873861      -0.53103060       0.79902148
H        0.94537377      -0.18477097      -0.14208816
H       -0.43127725       0.23234059      -0.25577232
H        0.94554281      -0.15148079      -0.17624754
H       -0.18672089      -0.94208354      -0.69279736
H       -0.18672089      -0.94208354      -0.69279736
H       -0.18672089      -0.94208354      -0.69279736
H       -0.18672089      -0.94208354      -0.69279736
H       -0.18672089      -0.94208354      -0.69279736
H       -0.18672089      -0.94208354      -0.69279736
H       -0.18672089      -0.94208354      -0.69279736
H       -0.18672089      -0.94208354      -0.69279736
H       -0.18672089      -0.94208354      -0.69279736
