21
Properties=species:S:1:pos:R:3 pbc="F F F"
H        0.00000000       0.00000000       0.00000000
H        1.00909960       0.15966894       0.09771150
H        0.52831984      -0.51057702       0.70840383
H        0.34454840       0.36927062       1.08277941
H        0.38217041       1.03035331       0.36890596
H        0.42294413       0.49534601       0.53422385
H        0.72502118       1.10177267       0.38936874
H        0.08897986      -1.00467384      -0.38319752
H        0.21295169      -0.13982946       0.04661179
H       -0.35895634      -0.52556574      -0.43452111
H        0.50396478       0.11673445       0.26732433
H        0.32969403       0.17498223       0.23650146
H        0.79458809       1.17329001       0.33888996
H        1.10353291      -0.82791555       0.74378240
H        0.59639418      -1.32630360       0.46660095
H        0.60282069      -1.30594528       0.42255849
H        1.95212328      -1.63193488       0.55456907
H        1.95212328      -1.63193488       0.55456907
H        1.95212328      -1.63193488       0.55456907
H        1.95212328      -1.63193488       0.55456907
H        1.95212328      -1.63193488       0.55456907
