21
Properties=species:S:1:pos:R:3 pbc="F F F"
H        0.00000000       0.00000000       0.00000000
H        0.65604281      -0.46966103       0.54505712
H       -0.24357623      -0.76811284       0.93867606
H        0.69366479      -1.13074362      -0.16881633
H       -0.54455507      -0.77460212      -0.22696318
H        0.17312980      -1.33082342       0.25144058
H        0.08697647      -0.35653803       0.07619165
H       -0.31121543      -1.24666572      -0.05930199
H       -0.46246529      -0.07585901       0.37192208
H        0.41587842      -0.28079301       0.23741555
H       -0.58429062      -1.01524651       1.57526743
H       -0.58003795      -1.04015672       1.56732178
H       -0.46165842      -1.26257992       1.31386662
H        0.82255691      -0.82974660       1.45045328
H        0.82255691      -0.82974660       1.45045328
H        0.82255691      -0.82974660       1.45045328
H        0.82255691      -0.82974660       1.45045328
H        0.82255691      -0.82974660       1.45045328
H        0.82255691      -0.82974660       1.45045328
H        0.82255691      -0.82974660       1.45045328
H        0.82255691      -0.82974660       1.45045328
