8
Properties=species:S:1:pos:R:3 pbc="F F F"
H        0.00000000       0.00000000       0.00000000
H        0.85755634      -0.19475858       0.52914101
H        0.02194848      -0.87984765      -0.41646999
H        0.86072218      -0.29402679      -0.33525121
H        0.83889866      -1.11049914       0.28621519
H        0.14602017      -0.85584122       0.59803939
H        0.72906309      -1.13238382       0.01984346
H        0.67043144      -0.81092590       0.23884775
