12
Properties=species:S:1:pos:R:3 pbc="F F F"
H        0.00000000       0.00000000       0.00000000
H       -0.32486421      -0.96807545       0.10303906
H        0.49952254      -0.74740851      -0.49515826
H       -0.09263443      -0.52595156       0.87642324
H        0.84310091      -0.16421771       0.20477265
H        0.46773273      -1.27961230       0.61943084
H        0.60530233      -1.13229322       0.44891536
H        0.71275622       0.12141901       0.01997519
H        0.75449395      -0.00429851      -0.02440852
H        0.30132785      -0.33754024       0.74123085
H        0.24650368      -0.46180752       0.17711993
H        0.65405607      -0.51445818       0.09444842
