21
Properties=species:S:1:pos:R:3 pbc="F F F"
H        0.00000000       0.00000000       0.00000000
H        0.11786898      -0.15148079      -0.95457917
H        0.40359202      -0.63587439      -0.61712086
H        0.17275059      -0.41803589       0.30337870
H        0.36348265      -0.83740407      -0.67226410
H       -0.21142271      -1.31813586      -1.20006061
H       -0.23425522      -0.95439881      -1.23683619
H        0.26029846       0.17645577       0.57122290
H        1.17745912       0.19426823       0.11098069
H        0.66086704      -0.55314028      -0.36634213
H        0.26523697       0.11886284       0.67217600
H        0.26700705       0.06107217       0.74428308
H       -0.69390196      -0.43310797       0.35668215
H       -0.69390196      -0.43310797       0.35668215
H       -0.69390196      -0.43310797       0.35668215
H       -0.69390196      -0.43310797       0.35668215
H       -0.69390196      -0.43310797       0.35668215
H        1.29274333      -0.51611447       0.17505248
H        1.29274333      -0.51611447       0.17505248
H        1.29274333      -0.51611447       0.17505248
H        1.01592183      -0.58283162       0.17665143
