9
Properties=species:S:1:pos:R:3 pbc="F F F"
H        0.00000000       0.00000000       0.00000000
H        0.02715597      -1.02162731       0.09414954
H        0.56213737      -0.46966103      -0.64146781
H       -0.82988214      -0.65577519      -0.33592230
H       -0.04657573       0.26215020      -0.84636211
H       -0.52375948       0.17595583      -0.73912615
H       -0.20446455      -0.65652072      -0.65898007
H       -1.71490097      -1.24052072      -0.53325844
H       -0.90795994      -0.71282351      -0.39745426
