9
Properties=species:S:1:pos:R:3 pbc="F F F"
H        0.00000000       0.00000000       0.00000000
H        0.50912565      -0.18477097       0.80914259
H       -0.39357370       0.14758122       1.16691327
H       -0.54560626       0.02957312       0.21243900
H        0.34606177       0.01176066       0.72031182
H       -1.14085054       1.34088719       0.64961433
H       -1.29861414       0.32850754       0.59026927
H       -0.62780398       0.56951869       0.20791551
H       -0.38257980       0.73098713       0.61632228
