8
Properties=species:S:1:pos:R:3 pbc="F F F"
H        0.00000000       0.00000000       0.00000000
H        0.12529835      -0.08895500      -1.01474690
H        0.23222719       0.83845192      -0.58835918
H       -0.78270507       0.25813550      -0.95890015
H       -0.78270507       0.84132630      -0.17918903
H       -0.55681527       0.50091171      -0.45556712
H       -0.77151108       0.15480810       0.21521527
H       -0.17772603      -0.14364371      -0.56687778
