21
Properties=species:S:1:pos:R:3 pbc="F F F"
H        0.00000000       0.00000000       0.00000000
H        0.58115071      -0.52769721      -0.57607329
H       -0.00497425      -1.30229926      -0.64323026
H        1.57780385      -0.36802828      -0.76184773
H        1.01681638      -0.80780470      -0.09855992
H        0.44506037      -0.38723427       0.70732504
H        0.52373719      -1.55294287       0.13503891
H        0.78341067      -0.58582085       0.31049240
H       -0.25547951      -1.78961909      -1.57268906
H        0.28861117      -1.47431064      -0.82931381
H        0.95187819       0.06346130      -0.07238585
H        0.36902475      -1.27852750      -0.77943587
H        0.68267953      -1.61908889       0.87852526
H        0.68210387      -1.64543569       0.87583238
H       -0.65882277      -1.49130917       0.12466142
H       -0.65882277      -1.49130917       0.12466142
H        0.62957877      -1.80865514       0.73189259
H        0.38349777      -2.40174198      -0.32095882
H        0.38349777      -2.40174198      -0.32095882
H        0.38349777      -2.40174198      -0.32095882
H        0.39224136      -2.41778731      -0.29252851
