21
Properties=species:S:1:pos:R:3 pbc="F F F"
H        0.00000000       0.00000000       0.00000000
H        0.63772744       0.77136850       0.22719663
H       -0.54069358       0.79439902       0.36042264
H        0.26881170       1.07754564       0.82149756
H        0.24960977       0.01781246       0.99533993
H        0.22243026       0.55159408      -0.05858636
H        0.38644630       1.02373552       1.14606643
H       -0.04107043       0.46208638       0.24270225
H       -0.39783072       0.85294992       0.77740991
H        0.06097566      -0.29952607       0.45078611
H        0.09474416      -0.37623537       0.49178416
H        1.06955814      -0.05745716       0.71934330
H        0.09772798       1.32322204       0.72315598
H        0.01116276       1.26752865       0.56802428
H        0.94559723       0.13363439      -0.05727008
H        1.00845027       0.16424799      -0.04917112
H        0.06191844       0.40290716       0.67238498
H       -0.14869654       0.25093335       0.75142151
H        0.22993529       0.55840588       0.43672422
H        1.53569961      -0.28979775       0.90409106
H        1.53569961      -0.28979775       0.90409106
