21
Properties=species:S:1:pos:R:3 pbc="F F F"
H        0.00000000       0.00000000       0.00000000
H       -0.47549847       0.19475858       0.88842231
H        0.34606498       0.79439902       0.54999369
H       -0.54693580       0.79439902      -0.35087794
H       -0.68289769       0.83513749       0.01798225
H       -0.68582147       1.17407775       0.66476595
H       -0.70033956       0.84099698       0.05418634
H        0.35427949      -0.23452058      -0.50230628
H        0.35427949      -0.23452058      -0.50230628
H        0.35427949      -0.23452058      -0.50230628
H        0.35427949      -0.23452058      -0.50230628
H        0.35427949      -0.23452058      -0.50230628
H       -0.18240303      -0.14616209       0.56390947
H       -0.23756522      -0.08611488       0.33045268
H        0.83095497       1.36798072       0.68525505
H        0.83095497       1.36798072       0.68525505
H        0.83540320       1.36798072       0.66815490
H        0.49484909       0.78298080      -0.09075457
H        0.47181487       0.73737657      -0.09324878
H       -0.50252533       1.59841835       0.36078021
H       -0.50252533       1.59841835       0.36078021
