20
Properties=species:S:1:pos:R:3 pbc="F F F"
H        0.00000000       0.00000000       0.00000000
H       -0.33100656      -0.58582085      -0.77496612
H        0.14979294       0.18554765      -1.25156498
H        0.63052112       0.06116075      -0.35337114
H        0.74863249      -0.95645577      -0.29148316
H        0.58728361      -1.01731038      -0.62042242
H        0.78624821       0.19475858      -0.63024342
H        0.70427775      -0.52692640      -0.32198822
H        0.80498290       0.60491586      -1.99921715
H        0.35120410      -0.16968626      -1.62220621
H        0.66810304      -0.18969429      -1.45339715
H       -1.13551867      -0.68469250      -0.86714542
H       -0.04703021      -0.62579805      -0.56350857
H       -1.56809425       0.33373201      -1.87990892
H       -0.68918031       0.71218622      -1.70006537
H       -0.73295707       0.03546721      -2.12875009
H       -1.37662876      -0.52075410      -1.55461729
H       -0.56903464      -0.08097765      -1.23454022
H       -0.86089677      -0.08515486      -1.59962237
H        0.93796712       0.12746000      -1.60675538
