21
Properties=species:S:1:pos:R:3 pbc="F F F"
H        0.00000000       0.00000000       0.00000000
H        0.15274149      -0.33235219      -0.95892441
H        0.38460100       0.70907992      -0.54529685
H       -0.31114340       0.60820889      -1.21246505
H       -0.89626163       0.37845421      -0.03935063
H       -0.55857974       0.40936196      -0.68445045
H       -0.10292381       0.27958256       0.12298235
H       -0.65240228       0.88594908      -2.19761992
H       -0.27574104       0.57064056      -1.35692501
H       -0.03505188      -0.30905896       0.36977327
H       -0.03505188      -0.30905896       0.36977327
H        0.44638789      -0.71080637      -1.80663025
H       -0.08128347      -0.26250061       0.36077225
H       -0.02249748      -0.09729075       0.49979115
H        0.56272966      -0.23709527      -0.68953532
H        0.56272966      -0.23709527      -0.68953532
H        0.56272966      -0.23709527      -0.68953532
H        0.56272966      -0.23709527      -0.68953532
H        0.56272966      -0.23709527      -0.68953532
H        0.56759334      -0.20606343      -0.69549513
H        0.06731496       0.27156052      -1.20553589
