21
Properties=species:S:1:pos:R:3 pbc="F F F"
H        0.00000000       0.00000000       0.00000000
H       -0.72715116       0.63587439       0.12237607
H       -1.07395899      -0.19585663      -0.24641757
H       -0.54166240      -0.61471456      -0.61810338
H       -0.71338141      -0.72355384       0.48814380
H       -0.61309248      -0.35799721       0.58676523
H       -1.11747146      -0.24625322      -0.17291504
H       -0.19761321      -0.33811864      -1.10590494
H       -0.19761321      -0.33811864      -1.10590494
H       -0.19761321      -0.33811864      -1.10590494
H       -1.00667071       0.75220013       1.42988646
H       -1.00667071       0.75220013       1.42988646
H       -1.00667071       0.75220013       1.42988646
H       -1.00667071       0.75220013       1.42988646
H       -1.00667071       0.75220013       1.42988646
H       -1.00667071       0.75220013       1.42988646
H       -1.00667071       0.75220013       1.42988646
H       -1.00667071       0.75220013       1.42988646
H       -1.00667071       0.75220013       1.42988646
H       -1.00667071       0.75220013       1.42988646
H       -1.00667071       0.75220013       1.42988646
