21
Properties=species:S:1:pos:R:3 pbc="F F F"
H        0.00000000       0.00000000       0.00000000
H        0.15274149      -0.33235219      -0.95892441
H        0.49210179       0.83173102       0.11882853
H       -0.82587725       0.12126508      -0.93315518
H       -0.42898753      -0.01689900       0.87392515
H        0.97286046      -0.25252077      -1.37046993
H       -0.24570023       0.67991775       1.60479867
H        0.52894264       1.26310849       1.51604187
H       -0.29101461       0.93773746      -1.25035965
H        1.53336215      -0.03468227      -0.60467285
H        0.43874639       0.99139994      -0.89358580
H       -0.01614875       1.17871523       2.31842208
H        1.38618922       1.70293367       0.92261696
H        0.52358586       1.21018529       1.01540089
H        1.83301806       0.94463688      -0.67148823
H        0.92801976       0.01873364       0.22238898
H        0.96072489       0.43297341      -2.06185341
H        1.15841687       1.43764722      -1.72174215
H        0.92116737      -0.03112572      -0.84687281
H        0.77098352       2.28644633      -1.44336033
H        0.80784464       0.92682445      -0.71649879
