21
Properties=species:S:1:pos:R:3 pbc="F F F"
H        0.00000000       0.00000000       0.00000000
H       -0.26684549      -0.92909771       0.11675546
H        0.39005271      -1.29494977      -0.58178645
H        1.00591075      -0.50055075      -0.78908569
H        0.93755209      -1.52456331      -1.41895187
H        0.10890874       0.13826758       0.11345799
H        0.81432468      -0.79275209      -2.04929161
H        0.09663981      -0.23653078      -1.57088780
H        1.51933050      -0.74996120      -1.32104146
H        0.35743758      -0.39549401      -0.92935622
H        0.39335164      -0.75305247       1.01876354
H        0.39335164      -0.75305247       1.01876354
H       -0.45789608      -1.21660054       1.35614216
H        0.39335164      -0.75305247       1.01876354
H        0.39335164      -0.75305247       1.01876354
H        1.23978615      -0.32156289       0.63057649
H        0.39335164      -0.75305247       1.01876354
H        0.39335164      -0.75305247       1.01876354
H        0.39335164      -0.75305247       1.01876354
H        0.39335164      -0.75305247       1.01876354
H        0.39335164      -0.75305247       1.01876354
