21
Properties=species:S:1:pos:R:3 pbc="F F F"
H        0.00000000       0.00000000       0.00000000
H       -0.67230010      -0.60990006       0.35227177
H       -0.60691100       0.35817540       0.01778996
H       -1.22462726      -1.49041390       0.64168006
H       -1.13453054       1.21581781      -0.18068184
H       -2.01336622      -2.07623482       0.34498435
H       -2.05296898       0.99797928      -0.41959202
H       -2.32399321      -1.85839629      -0.55174196
H       -2.11593437       0.05933398      -0.16851184
H       -2.67306972       0.74733567      -1.12720323
H       -1.80457067      -2.07623482      -1.34597588
H       -0.32153785       0.66289437      -0.62503058
H       -2.17489862       0.98098183       0.38935527
H       -0.60386074      -0.81265163      -0.01843971
H       -1.52171063      -1.21575439       2.03134871
H       -1.47094369      -1.16659999       2.03068972
H       -2.03536725      -0.96229333      -0.22428399
H       -2.45660257       1.65394378      -2.23448777
H       -1.09808886      -2.74648070      -1.66997862
H       -1.40646148      -1.32257414      -0.87526834
H       -2.52288985       1.83516312      -2.07004619
