21
Properties=species:S:1:pos:R:3 pbc="F F F"
H        0.00000000       0.00000000       0.00000000
H       -0.41358426      -0.01689900      -0.88131911
H        0.49592441       0.43148959       0.78816211
H        0.33263856       1.42974389       0.61452478
H       -0.05205595       1.02440715       0.03470014
H        0.50675219       2.38408136       0.69810474
H        0.61501610       2.79344320      -0.17868638
H        0.18533292       1.85638416      -0.05441517
H       -0.78019083       0.93876630      -0.80630392
H       -0.15246424       0.83190012      -1.28059018
H        0.47762680       0.87131476      -0.25428212
H        0.47067210       1.50214601      -1.74512792
H        0.42446646       2.42955303      -1.30797195
H        1.19372559       2.37887645      -0.71321726
H       -0.34592083       2.11579609      -0.62081325
H       -1.26805556       1.79710913      -0.37114549
H       -1.01429057       1.33356106       0.50865585
H       -0.92828000       0.80586386       1.32241178
H        1.74350905       1.60750794      -0.31818217
H       -0.16105258       1.38423765       0.04231066
H       -1.60841358       2.64144278       0.33162853
