21
Properties=species:S:1:pos:R:3 pbc="F F F"
H        0.00000000       0.00000000       0.00000000
H       -0.96783787       0.05067664       0.09371616
H       -0.19253305      -0.95433736      -0.01523767
H        0.42527428      -1.77080977      -0.08602463
H        0.98351485       0.19475858      -0.21929795
H        1.29165709      -1.24485826      -0.24751687
H        0.75833791      -0.45024812      -0.42703342
H        1.93007195      -0.41851109      -0.12764245
H       -0.97756821      -0.93576556      -0.46063757
H       -0.95373309       0.08586174      -0.36559302
H       -1.39159989      -1.79340792      -0.84319627
H       -0.61506045      -1.28231645      -0.19802743
H        1.27588511       0.25173485      -0.54732555
H        2.12236261      -0.46644846       0.77183747
H        1.25213265      -0.20225659       0.29620504
H        1.71621287      -0.36836988      -0.27977741
H        1.84298539      -0.53082150      -0.43131793
H        2.04073119      -1.53614676      -1.04407811
H        2.04073119      -1.53614676      -1.04407811
H        2.04073119      -1.53614676      -1.04407811
H        2.04073119      -1.53614676      -1.04407811
