21
Properties=species:S:1:pos:R:3 pbc="F F F"
H        0.00000000       0.00000000       0.00000000
H       -0.46163812      -0.66108263       0.54582143
H        0.80183107       0.37845421      -0.40236843
H       -0.67961395      -1.52592707       0.15519169
H       -0.11951208      -2.32053709       0.20942657
H       -0.06974591      -2.71944833      -0.73488122
H        0.28992930      -0.39689076      -0.10122794
H       -0.51957715      -2.10473371      -1.42270517
H       -0.21978047      -1.33116853      -0.74143875
H        0.46671352      -0.58376002      -0.89450884
H        1.23898280       0.75690842      -1.18577886
H        0.37679088      -2.44910121      -0.72967583
H        0.52210695       0.07914615      -0.63152426
H        1.52155960       1.08343852      -0.93373030
H       -0.30082607      -1.11535096      -1.58578050
H        0.90437663       0.33603001      -1.27105749
H       -0.27706361      -0.37353683      -2.03667092
H       -0.27706361      -1.11252594      -1.17971945
H       -0.33627206      -0.50224566      -2.51617932
H       -0.19283846      -0.55566156      -1.50134063
H        1.04392874      -1.59861791      -1.06445360
