21
Properties=species:S:1:pos:R:3 pbc="F F F"
H        0.00000000       0.00000000       0.00000000
H        0.52691501       0.55577880      -0.60127473
H       -0.29282159       0.46682382      -1.21237445
H       -0.77636176      -0.18477097       0.55783784
H       -1.58330274       0.34292623       0.69364214
H       -1.67549896       0.13053754       0.35735375
H       -0.07874572       1.24803257      -0.64920861
H       -1.04733109       1.65140796      -0.22541422
H       -1.90033317       1.38721609      -0.73129368
H       -0.27966994       2.06077003       0.21182725
H       -0.42162073       1.17940021       0.25835538
H       -1.06454790       0.13714455      -0.35832942
H       -2.16325331       0.44511241      -0.42042798
H        0.41043061       2.64066529      -0.47224399
H       -1.27761436      -0.07899845      -1.32520998
H       -0.61801493       0.31708327      -0.42781797
H       -0.95012987       1.40411508      -0.94316399
H       -1.16268206       0.21229005      -0.23782206
H       -0.36226416      -0.54254651      -1.30110669
H       -0.38857192      -0.57404649      -1.45883167
H       -0.90723073      -0.01839969      -0.99484086
