21
Properties=species:S:1:pos:R:3 pbc="F F F"
H        0.00000000       0.00000000       0.00000000
H        0.85755634      -0.19475858       0.52914101
H       -0.61646348      -0.75366068      -0.00540974
H       -1.10389090      -0.52404714      -0.87891763
H       -1.01058948       0.31351483      -1.46467233
H        0.70115089      -0.88025278      -0.14442855
H       -0.18315494      -1.52826285      -0.40577984
H       -0.97745961      -1.41783786      -1.24390268
H        1.52957892      -1.46607363      -0.29884607
H        1.20861483      -2.21348214      -0.92469478
H        0.22525132      -1.98386860      -1.10799181
H        0.86008298      -1.08761942       0.29832107
H       -0.27266964      -1.63677812      -1.86934841
H        0.12956148      -0.40337542      -1.04927254
H        0.30086863      -1.74993408      -0.80451238
H       -0.64758080      -0.53196287      -1.50626504
H        0.05634395      -0.36643961      -1.06912041
H       -0.28523600       0.45065939      -0.60704499
H       -0.41485298       0.75563949      -1.12535501
H       -0.63573909       1.14265442      -0.89857596
H       -0.05407426      -0.55701590      -1.61089039
