21
Properties=species:S:1:pos:R:3 pbc="F F F"
H        0.00000000       0.00000000       0.00000000
H        0.50912565      -0.18477097       0.80914259
H       -0.14556891      -0.02510203       1.58322573
H        0.52879947      -0.14311013       2.27558565
H        1.49663734      -0.09243349       2.36930180
H        0.72720009      -0.64286757      -0.33350441
H       -0.98723358       0.05341591       0.27539173
H       -1.36071360      -0.21077596       1.19410777
H        2.02486897      -0.86380202       1.94588017
H       -0.72235489      -0.69399261       0.92696190
H        1.17186689      -1.12799382       1.44000077
H        1.32355094      -0.68821740       2.29536581
H        1.35413754      -0.74099231       0.98204917
H       -0.08659041      -1.49064803       1.41850483
H        0.15807927      -1.16881919       0.33939996
H       -0.64133626      -0.81082201       0.62419939
H        1.15174294      -0.54478896       0.71082056
H       -0.25691578      -1.86696398      -0.85861850
H       -0.35121304      -2.24541807       0.03353691
H        1.32249904      -0.46682233       0.61259174
H        0.22117019      -0.36457688       1.56712401
