21
Properties=species:S:1:pos:R:3 pbc="F F F"
H        0.00000000       0.00000000       0.00000000
H        0.41703188       0.87984765      -0.00365971
H       -0.52727532      -0.64286757      -0.60168594
H       -0.38101840       0.08439321      -0.89205587
H       -0.97168624      -0.66250694      -1.64215899
H       -1.70008278      -0.92669880      -2.31518579
H       -0.39586693       0.11209518      -1.77055156
H       -0.75246447      -1.61783385      -1.00524247
H        0.01444718       0.82643175      -0.94620746
H       -0.76256734      -0.89212048      -0.66396129
H        0.47360122       0.78633082      -1.07705700
H       -0.93534601      -0.10263294      -2.18648434
H       -0.93130034      -0.10263294      -2.21340156
H       -1.83665752      -1.85410571      -1.89734888
H       -2.03827953      -2.26214886      -1.69034791
H       -1.72623610      -1.97902036      -1.57041907
H       -1.64276767      -0.00323296      -2.96664310
H       -1.50033021       0.05974340      -2.83239126
H       -1.55772364       0.22513306      -2.55049706
H       -1.87192893       0.29389143      -1.57512617
H       -1.86416125       0.29389143      -1.52344465
