21
Properties=species:S:1:pos:R:3 pbc="F F F"
H        0.00000000       0.00000000       0.00000000
H       -0.02074104      -0.97334045      -0.01546210
H       -0.11993916      -1.97926354      -0.19323285
H       -0.73367631       0.49897972      -0.40099773
H       -1.49138474      -0.05679908      -0.65604424
H       -0.60100967      -0.52769721      -0.55532330
H       -1.91746736      -0.03715971       0.39206779
H       -1.31525946      -0.02026071       1.15699983
H       -0.55629772      -0.94053376      -0.08786480
H       -2.20290279       0.29519248      -0.53604460
H       -1.26210785       0.64833450       0.17147222
H       -0.71354854       0.73339999       1.02283406
H        1.21395373      -2.40015721       0.17886026
H       -0.81569362      -0.70575488       1.63511336
H        0.04384309      -0.30684370       1.24091744
H        1.18456733      -2.40015721       0.27151036
H       -0.02335703      -0.68702894       0.90300721
H       -1.70757139       1.19540572      -0.06198364
H       -1.84834778       0.19715142       0.13035509
H       -0.26425418       1.38239098       0.81678122
H        1.26655412      -2.35184193      -0.00966595
