21
Properties=species:S:1:pos:R:3 pbc="F F F"
H        0.00000000       0.00000000       0.00000000
H        0.80713278      -0.08439321       0.53802919
H        1.73355556      -0.48330438       0.72759408
H       -0.52051765       0.52595156       0.71116823
H       -0.42622060       0.14749736       1.60332370
H        0.57093763       0.24795899       1.47987723
H        1.44225502       0.12995088       1.89813673
H       -0.29613116      -0.66616344       2.12206626
H        0.11319076      -0.77460212      -0.57899946
H        0.55992848      -0.93427104       0.33108574
H        0.12255740      -1.53100777       1.96457040
H       -0.24534869      -0.39247906       0.88095671
H        0.45966333      -1.81014705       1.04049325
H        0.96922183      -1.94036973       1.71229458
H        2.88354015      -0.29907101       0.51323897
H        0.51720935      -1.51885855      -0.05143642
H        0.62838900      -2.43728924       0.25218368
H        0.64331126      -0.44994444       1.34507155
H        0.28041080      -0.89577699       1.30463076
H        2.42658830       0.46191430      -0.12160695
H        2.88354015      -0.35248691       1.53816366
