21
Properties=species:S:1:pos:R:3 pbc="F F F"
H        0.00000000       0.00000000       0.00000000
H        0.38154608      -0.49897972      -0.74397767
H       -0.26127899      -0.97931916       0.16121796
H       -1.14382720      -0.54782957      -0.13584989
H       -1.16016972      -0.97931916      -1.06691027
H       -1.00731933       0.33201808      -0.52992427
H       -0.16570389       0.83173102      -0.47835830
H       -0.54901564      -0.22565848      -0.98599559
H        0.10089549      -1.53319919      -0.31581348
H        0.75079083      -1.33126795      -0.88287449
H       -0.12678641      -1.61441457      -0.57022917
H       -1.49019885      -1.56893337      -1.61242926
H        0.38223845       0.15396875      -1.20007038
H       -0.87704313      -1.02311110      -0.83359110
H       -0.85097742      -0.95566368      -0.90832198
H       -1.37648833      -1.08058918       0.43646854
H       -2.32741785      -0.98311251      -1.70835602
H       -2.36171532      -1.04298186      -1.74341691
H       -0.04187590      -0.74624449      -0.66135520
H       -2.17531061      -0.71568668      -0.40416601
H        0.38223845      -0.81263757      -0.61173111
