21
Properties=species:S:1:pos:R:3 pbc="F F F"
H        0.00000000       0.00000000       0.00000000
H       -0.30820453      -0.91843063       0.09775501
H       -0.37053978      -0.77136850      -0.56658173
H        0.67869401       0.83513749      -0.07776321
H        1.08478403       1.56694865      -0.57536167
H       -0.57388735      -1.26641655      -1.44231057
H        2.01416159       1.65590370      -1.00158751
H        0.86149067       0.01866508      -0.67213851
H       -0.98936272      -1.29243970      -1.16535759
H        0.97621846       0.95108563      -1.45459628
H        2.02604270       0.88453519      -1.67847264
H        0.25504857       0.33637106      -1.84875846
H        3.05881333       1.45115745      -0.82577777
H        2.67688274       0.95610940      -1.63964522
H        1.48045743      -0.43495220      -1.43058348
H        3.06882310       0.12382114      -1.68455291
H        2.62479639      -0.07093744      -0.77999038
H        1.14675903       0.58701468      -2.14891028
H        2.23695898      -0.24066381      -1.81020498
H        0.50088835      -0.53303081      -0.87264454
H        2.80468583       0.50555170      -0.25857419
