21
Properties=species:S:1:pos:R:3 pbc="F F F"
H        0.00000000       0.00000000       0.00000000
H        0.05321160       0.83173102       0.50344110
H        0.49089283       0.77460212       0.32722577
H       -0.28142074      -0.87587595      -0.65887368
H        0.47056940      -1.07063448       0.01187509
H       -1.10412991      -0.85806352      -1.27218938
H       -0.35794252      -0.92346585      -0.54731959
H        0.72828436      -1.49773955       0.04599566
H       -1.06289530      -1.32364416      -1.44976878
H        0.48504874      -0.01695216       0.42420346
H        0.48504874      -0.01695216       0.42420346
H        0.48504874      -0.01695216       0.42420346
H        0.48504874      -0.01695216       0.42420346
H        0.48632327      -0.03190470       0.46049857
H        0.16342397       0.56256706      -1.32351291
H        0.16342397       0.56256706      -1.32351291
H        0.16342397       0.56256706      -1.32351291
H        0.16342397       0.56256706      -1.32351291
H        0.16342397       0.56256706      -1.32351291
H        0.16342397       0.56256706      -1.32351291
H        0.16342397       0.56256706      -1.32351291
