21
Properties=species:S:1:pos:R:3 pbc="F F F"
H        0.00000000       0.00000000       0.00000000
H        0.50421435      -0.31530851      -0.77097952
H        0.97115791      -1.27364957      -0.60462630
H        0.05469325       0.58319080       0.77779055
H        0.87142229      -2.12244868      -0.13809246
H        1.32253611      -1.93767774       0.70476991
H        1.08550644      -0.56903201       0.20442611
H        0.52453542       0.08421108       1.46940351
H        0.84278345       0.17973956       0.06186032
H        1.11655569       0.92177308       1.50581574
H        1.55280805       0.73700213       0.65516627
H        2.31516838      -0.08706373       0.51306367
H        1.11292124       0.87447929       0.50251734
H        1.91695213      -0.96375310       0.86825871
H        0.88976908      -0.87145424       1.38796604
H        1.80692971      -0.88926667       0.92772382
H        3.21849442      -0.76482600       0.44157153
H        3.21849442      -0.76482600       0.44157153
H        3.21849442      -0.76482600       0.44157153
H        3.21849442      -0.76482600       0.44157153
H        3.21849442      -0.76482600       0.44157153
