21
Properties=species:S:1:pos:R:3 pbc="F F F"
H        0.00000000       0.00000000       0.00000000
H       -0.13959605      -0.55577880       0.78719991
H        0.00349170      -0.64473379       1.79959154
H       -0.48397353      -0.72912699       2.63823104
H        0.31115389       0.21291459       1.93420601
H       -0.48762849       0.83173102       0.13602540
H        0.20422505       1.14032149       2.36059380
H       -0.85929501      -0.20868832       1.34363723
H        0.05637363      -1.54559946       2.94599986
H       -0.40050194       0.83173102       0.30964920
H       -0.60614395      -0.82305157       2.64215970
H        0.03705424      -1.88507438       2.57941628
H        0.00861014      -1.85879135       2.55918026
H       -0.65171003       0.23255396       2.52832556
H       -1.64872193      -0.18904895       2.15412498
H       -0.25906485       0.29315272       2.83190012
H        0.44160065      -0.44427392      -0.67523873
H       -0.07735571       0.35238150      -0.06164670
H        0.69507599      -1.75215554      -0.10949051
H        0.69507599      -1.75215554      -0.10949051
H        0.69507599      -1.75215554      -0.10949051
