21
Properties=species:S:1:pos:R:3 pbc="F F F"
H        0.00000000       0.00000000       0.00000000
H       -0.92501378       0.29845181       0.32954502
H       -0.40316308      -0.89468008      -0.30055124
H       -0.88670588      -0.48531812      -1.03992260
H       -1.83255720      -0.18686631      -0.77607459
H       -0.65354180       0.99526858      -0.37335843
H       -1.42433107      -0.42409608      -0.20142639
H       -0.61648655       1.94960594      -0.56290543
H       -2.15222859       0.75369477      -1.19712365
H       -0.21826392       1.78993702      -1.49524045
H       -0.36530864       0.35240102      -1.11966062
H        0.74860752       0.69681674      -0.08577374
H        0.12548101       1.25303805       0.51059455
H       -0.34180257       2.08476901       0.31583709
H        0.66029406       0.89157534      -1.08956337
H       -1.31148636       2.00037575       0.34137106
H       -1.36638319       0.97596860       0.31136668
H       -1.20186591      -0.38358855       0.31696808
H        0.46169031       0.95479953      -1.42940021
H       -0.75731325       1.63393617      -0.57464480
H       -0.50734746       0.81091338       0.24684024
