21
Properties=species:S:1:pos:R:3 pbc="F F F"
H        0.00000000       0.00000000       0.00000000
H        0.90784711      -0.05341591       0.47569352
H        0.50360096       0.39891118       0.80036235
H       -0.88058829      -0.13076572      -0.60958326
H       -1.50071645       0.39693147      -1.14347243
H        0.40598631       1.00041389       1.49101686
H       -0.50526756       1.18518484       1.78004444
H       -1.04775226       0.80673063       1.06552100
H       -1.24988890       1.02551591       1.09202635
H       -1.08950090       0.92462867      -0.43601334
H       -1.42241597       1.30547738      -1.27289867
H        0.05160534       0.67135161       0.46798074
H       -0.11031461       0.98077452       0.48428035
H       -0.19249409       1.29170239       0.57589775
H        1.97332478      -0.99863458       0.73297596
H        1.97332478      -0.99863458       0.73297596
H        1.94891214      -1.03610623       0.68871653
H       -0.06228656       0.98260146       0.57793027
H       -1.26765609       0.00381261       0.67143619
H       -1.25195837      -0.02555764       0.72798002
H        1.54454446      -0.57936746       1.08504987
