21
Properties=species:S:1:pos:R:3 pbc="F F F"
H        0.00000000       0.00000000       0.00000000
H        0.45934626      -0.55622131       0.73002923
H       -0.72923702       0.69681674      -0.18969388
H       -1.51345360       1.22451401      -0.42336228
H       -0.58245909       0.31530851      -0.71371073
H       -0.20331821      -0.57403374       1.51353574
H        0.43831208      -0.55713475       0.78135687
H       -0.62174314       0.97387040      -0.72351408
H       -2.42031097       0.57860887      -0.62556779
H       -2.37439394       0.51571125      -0.61532950
H       -2.39041972       0.54675174      -0.65148443
H       -2.43226099       0.57860887      -0.56145763
H       -2.38980246       0.51571125      -0.52377248
H       -2.35589504       0.48552483      -0.58039176
H       -2.34986520       0.48552483      -0.60986024
H       -2.43226099       0.57860887      -0.56145763
H       -2.34986520       0.48552483      -0.60986024
H       -2.35589504       0.48552483      -0.58039176
H       -2.39788532       0.54675174      -0.62056744
H       -2.34280491       0.48552483      -0.63909858
H       -2.37439394       0.51571125      -0.61532950
