21
Properties=species:S:1:pos:R:3 pbc="F F F"
H        0.00000000       0.00000000       0.00000000
H       -0.33100656      -0.58582085      -0.77496612
H        0.15100932      -0.15433127      -1.57171035
H        0.94939178      -0.48668346      -2.12438679
H        1.65145588       0.23586443      -1.92854404
H        0.36968020      -1.25606680      -0.43861458
H        0.80869949       0.37162030      -0.98507380
H        1.09846234      -1.27387929      -1.16102946
H        1.42872322       0.69941252      -1.04037905
H        1.86665225      -1.60623145      -0.56710154
H        0.43814942       0.58319080       0.64496088
H        0.74688387       0.10377893      -0.10599607
H        2.49306250      -1.69062471       0.17353946
H        1.33081341      -1.09658349      -1.46818531
H        1.66126466       0.88418353      -0.11310077
H        2.43590760       0.30099273      -0.20185760
H        3.32283092      -1.29171348      -0.27997822
H        2.62844062      -0.65334463      -0.21709529
H        3.89443254      -1.02752161      -1.09040904
H        1.90154076      -0.93649125      -0.79976630
H        0.76179516       1.42866850       0.81454474
