21
Properties=species:S:1:pos:R:3 pbc="F F F"
H        0.00000000       0.00000000       0.00000000
H        0.21426670       0.05341591       1.00227761
H       -0.13222156       0.24817449       1.94850111
H       -0.37409788       0.97998571       2.54348779
H        0.22920114      -0.58319080      -0.74526250
H       -1.24352157       0.76214719       2.92389512
H       -0.62103868      -0.44556379       0.96560329
H       -2.08640671       0.67775398       3.40398216
H       -2.35382462       0.33066350       2.53445530
H       -1.32305360      -1.08843136       0.58191037
H       -2.38948250      -0.05405724       3.97024918
H       -0.75416237      -0.81280434      -0.92855954
H       -2.22321701      -0.62488329       0.41412166
H       -2.33244205      -1.04344010       4.23706722
H       -1.17379093      -0.01840532      -0.43240845
H       -1.83241355      -1.06125259       3.34097672
H       -2.05917358       0.22391582       0.86210692
H       -1.27594674      -1.22216630      -0.21566069
H       -2.28055120      -0.32944137       3.80107021
H       -0.68562949      -0.45818177       0.28617066
H       -0.77906859      -0.40026593       1.85128105
