5
Properties=species:S:1:pos:R:3 pbc="F F F"
H        0.00000000       0.00000000       0.00000000
H        0.11786898      -0.15148079      -0.95457917
H       -0.04649431      -0.40936196      -0.88222563
H       -0.03092698       0.26784137       0.88070560
H       -0.01213793      -0.09859824      -0.18973351
