13
Properties=species:S:1:pos:R:3 pbc="F F F"
H        0.00000000       0.00000000       0.00000000
H       -0.56912082      -0.52595156       0.67290437
H        0.01606992       0.46354809      -0.91552651
H        0.93088120       0.43148959       0.02451228
H        0.24029595       0.04687583      -0.70985240
H       -0.34051409      -0.11790851       0.84965229
H        1.59862912       1.15403748       0.31667846
H        0.73014849       0.57414216      -0.11913535
H        2.11268902       0.62127787       0.65934730
H        2.08069921       0.57970446       0.63802314
H        1.73034108       1.95874953       0.29212758
H        1.19303370       1.92371655       0.01431394
H        1.31477594       2.08745837       0.04567346
