21
Properties=species:S:1:pos:R:3 pbc="F F F"
H        0.00000000       0.00000000       0.00000000
H       -0.61304885      -0.15966894      -0.80746567
H       -0.15060316       0.55622131       0.84927052
H        0.25264221      -0.59115851      -0.46436274
H       -0.91152710       0.70770210       1.43758106
H        0.61135185      -1.47100616      -0.67709827
H       -1.51238751       0.02220792       1.77981663
H        0.24201316      -2.36568618      -1.01836133
H       -0.93948913       0.06117323       0.41809747
H       -1.59462023       0.85918289       0.76045620
H       -0.37437230      -2.97558618      -0.57547092
H       -0.30196285      -1.55083752      -0.58866161
H       -1.97963786      -0.34364417       0.94246763
H       -1.24661517      -3.02900219      -0.03726757
H       -1.85498691      -2.36791945       0.33811831
H       -2.77839947      -0.56148267       0.43003494
H       -1.94959664      -0.66328627       1.24408650
H       -2.73760438      -2.35010695      -0.18532491
H       -1.01883090      -2.31450367      -0.26611051
H       -1.51166058      -0.17656794      -1.18199492
H       -2.84515190      -1.28718019       0.90232980
