21
Properties=species:S:1:pos:R:3 pbc="F F F"
H        0.00000000       0.00000000       0.00000000
H       -0.90169489       0.25064358      -0.26867270
H        0.92248982       0.21783850       0.22275494
H       -1.08509409      -0.73873925      -0.06665708
H        0.71505535      -0.70956838       0.61032587
H       -0.76563609      -1.51010776       0.53021914
H       -0.52700770      -2.41676474       0.79307008
H        0.09590125      -1.89632964       0.08225447
H       -0.24575394      -1.19688821       0.66942042
H       -0.12560958      -1.03002775      -0.59107232
H        0.69607186      -0.63111657      -0.12306222
H       -0.16425049      -1.10517883      -0.61277050
H       -1.14137495      -1.64340401       0.13975519
H        0.07537144      -0.26044795      -0.52283359
H        0.89854205      -1.21856737       0.50282204
H        0.95717251      -1.22038245       0.53354323
H        0.73870999      -0.89837503       0.19513312
H        0.94149929      -0.91334093       0.19946188
H        0.37702101       1.47956693       0.67594433
H        0.37702101       1.47956693       0.67594433
H        0.37702101       1.47956693       0.67594433
