21
Properties=species:S:1:pos:R:3 pbc="F F F"
H        0.00000000       0.00000000       0.00000000
H       -0.47398776      -0.23709527       0.75329894
H       -0.25149095       0.67449737       1.16901255
H        0.17482954       0.79461014       0.53487396
H       -1.24451566      -0.91293037       1.09043539
H       -2.06641150      -0.53447616       1.45004725
H       -1.90276790      -0.06481513       0.61296892
H       -0.05117372       0.05067664      -0.97101706
H       -2.54713988       0.68259335       0.89490712
H       -1.36710954      -0.03308272       0.69181311
H       -0.19970101       1.58900917       0.00385523
H       -0.17480862      -0.35868531      -0.09626102
H       -0.89617640       1.14923275      -0.51535535
H       -0.74049932       0.46003860      -1.52356935
H       -2.33338976       0.59363836       1.89476800
H       -2.21887398       0.06594115       2.70500422
H       -1.78365254       1.09281135       1.34983385
H       -0.93909556       0.15984994      -0.78480577
H       -1.17192221       0.57166791      -0.71749800
H       -1.25653768      -0.44515038       3.01023388
H       -0.67780709       1.30754519       1.45691323
