21
Properties=species:S:1:pos:R:3 pbc="F F F"
H        0.00000000       0.00000000       0.00000000
H        0.63772744       0.77136850       0.22719663
H       -0.85668314       0.52595156       0.20686433
H        0.10800052       0.40794346       0.26619735
H        0.93676150       1.71347213      -0.04910597
H        0.00715464       2.11238337      -0.22238290
H       -0.14426734       1.62506354      -1.17302370
H       -1.06622541       1.88925540      -0.80762017
H        0.43774921       0.93956935      -1.54640722
H       -0.50411826       2.11886883       0.01980782
H       -0.79021168       1.80511177       1.01169205
H       -0.61038601       0.81572896       0.80648893
H        0.41560596       1.23106050      -0.07198746
H       -1.07330334       1.04457855      -0.60606104
H       -0.26056671       1.00845635       0.40730214
H        0.75472605       0.44238573      -0.28243542
H        0.62241870       0.48791122      -0.23981130
H        0.75121653       2.69616246       0.99720562
H        0.75121653       2.69616246       0.99720562
H        0.75121653       2.69616246       0.99720562
H        0.75121653       2.69616246       0.99720562
