21
Properties=species:S:1:pos:R:3 pbc="F F F"
H        0.00000000       0.00000000       0.00000000
H       -0.92830116      -0.43148959      -0.07346868
H       -0.39454409      -0.49897972       0.73716694
H       -1.59319615      -0.67287821      -0.88819158
H        0.86835784       0.51109153      -0.51498634
H       -0.97988063      -0.75727141      -1.63971186
H       -0.08306646      -0.37881720      -1.61609662
H        0.21185401      -0.97472465       1.56567097
H        1.45174360       0.01211181       0.08396369
H        0.80302536      -1.50242186       2.13145638
H        0.32229227      -0.24256915      -0.22885895
H        0.53282046      -0.87386525      -2.27102757
H       -0.45109156      -1.68380451       1.48971200
H        0.25081819      -0.04646501      -0.70429236
H       -1.34523392      -1.46748829      -0.38304782
H        0.73121536      -0.65602672      -1.34299374
H        1.10157835      -0.33989874       0.14289483
H       -0.19504145      -0.26180243       1.98342180
H        0.36328363      -0.62426239      -1.80804014
H       -0.54746377      -0.20838653       2.94585061
H        1.06187046      -2.44106722       2.12918496
