21
Properties=species:S:1:pos:R:3 pbc="F F F"
H        0.00000000       0.00000000       0.00000000
H        0.52815789      -0.26419187       0.83939010
H       -0.53331918       0.79461014      -0.17951654
H       -0.57638419       1.32230735      -0.99667138
H        0.04724463      -0.20606343      -0.89646173
H       -0.91730964       1.09287500       0.60274130
H       -1.11339545       1.78969169      -0.12480295
H        1.07305014      -0.18825097      -0.86944985
H       -0.86855561       0.92484730      -0.49918047
H       -1.83766532       1.70614469       0.36333239
H       -1.66465020       0.88804865       0.74949622
H       -0.62224150       2.27797270      -1.36805367
H        1.37813187       0.11020084       0.06391793
H       -2.38965964       1.03589869      -0.18383902
H       -2.00660753      -0.01860827       0.84488624
H        0.51047343      -0.06943329      -0.16812176
H       -2.21945357       0.14210790       0.16290128
H        1.58625317      -0.40133643       1.21634698
H       -1.67522168       0.02932908      -0.01314831
H       -0.79024398       1.48131728      -0.58218724
H        0.10591424      -0.16930947       0.58897519
