21
Properties=species:S:1:pos:R:3 pbc="F F F"
H        0.00000000       0.00000000       0.00000000
H        0.58115071      -0.52769721      -0.57607329
H        0.79851651      -1.45679498      -0.38219064
H        1.45129061      -0.61665219      -0.03916776
H        1.69967806      -1.17243099       0.72074962
H       -0.09429727      -0.37845421       0.89215541
H        1.83931279      -0.83449066       0.82688427
H        0.11677937      -0.21473382       1.10486329
H        0.72367287      -0.64313418       0.14735210
H        0.95043349      -2.35266423      -0.53278035
H        1.04427874      -1.31393445      -0.09379938
H        0.34555924      -2.12305069      -1.32947898
H        0.83701837      -1.18248963      -1.13469696
H        0.24999291      -2.44161916      -1.27762520
H        1.93257260      -2.79248953      -0.18288371
H        1.91597712      -2.39357829      -1.12835634
H        1.56331539      -1.83735704      -0.34122765
H        3.21272755      -2.13876772      -0.01339564
H        3.21272755      -2.13876772      -0.01339564
H        3.21435905      -1.16953146      -0.10634398
H        3.32921863      -3.05719829      -0.31501779
