21
Properties=species:S:1:pos:R:3 pbc="F F F"
H        0.00000000       0.00000000       0.00000000
H       -0.04850490       0.68549418       0.68978679
H        0.01688005      -0.15148079      -0.96168053
H       -0.77146041      -0.09806488      -0.30670720
H       -1.86385298       0.19322361      -0.35466900
H       -1.02967191       0.52582526       0.43455926
H       -1.03111422       0.41106212      -0.80981016
H        0.42327172       1.53429329       0.61887950
H        0.38330147       0.40474051      -1.74249876
H        0.66957569      -0.46404517      -1.85018504
H       -1.37235701       1.46792889       0.21471512
H       -0.62543011       1.08069468      -0.16010177
H       -1.32050121       2.28602505      -0.20524645
H        0.34605530      -0.71468878      -0.96668446
H        0.50697988      -0.03255558      -0.93328631
H        0.90854180       1.81551433       1.28188992
H       -0.61533135       1.48936963      -0.59066367
H       -0.83391720       1.28093565      -0.38828212
H        0.09547633       1.67758596      -0.22985792
H       -1.44544971       0.40795743       0.67455351
H       -1.51867568       0.40795743       0.70136738
