21
Properties=species:S:1:pos:R:3 pbc="F F F"
H        0.00000000       0.00000000       0.00000000
H        0.69739223       0.29845181      -0.69129914
H        0.02950794       0.82440341      -1.26630306
H        1.18625581      -0.57823753      -0.47740194
H       -0.53992224      -0.15966894       0.85808724
H       -1.21554160      -0.74548978       0.35442442
H       -0.50824565       0.18153584      -0.67396337
H       -0.88517970      -0.06965464      -0.41903228
H        0.12170792      -0.44109297      -0.83573139
H        2.50076056      -0.06229222      -0.15998656
H        2.04463601       0.57358217       0.41938823
H       -0.26995975      -1.14440095       0.34612635
H        2.87032962       0.18835136      -1.02523637
H        2.43803596       0.03027350      -0.08036759
H        2.48881149      -0.06229222      -0.11405042
H        0.50853509      -0.81204879      -0.23422858
H       -0.73080176      -0.42185307      -0.21856210
H       -0.36076099       1.08063626      -1.44528604
H        0.11783814      -0.48015893      -0.83703393
H       -0.30124235       0.19234161       1.12099493
H        0.24388206       1.35035491      -0.41146821
