21
Properties=species:S:1:pos:R:3 pbc="F F F"
H        0.00000000       0.00000000       0.00000000
H        0.12256700       0.83228827       0.37498182
H       -0.34483567      -0.46354809       0.84825432
H        0.25807914      -0.26419187      -0.95756030
H        0.11451060      -1.01976943       1.57828355
H        0.92013311       0.74789506      -0.17712963
H        0.18339089      -0.72131765       2.55782723
H        0.23808414      -0.13812685       3.33561778
H        0.50685835      -0.07942089      -1.88061476
H        0.65262312       0.23478785      -0.22039324
H        0.24760905       0.48205766       1.03616345
H        0.48292398       0.72671753       2.96124029
H        0.72487646      -0.31234136       0.59517610
H        1.00231481      -0.86828864       1.20825899
H        0.42759079      -0.02052642      -0.75335300
H        1.55307043      -0.04422277       0.66231525
H        0.66418970      -0.02372292       0.58578002
H        0.90780097      -0.86828864       1.09244740
H        1.64236426       0.29525208       1.01838183
H        1.46669626       0.30778778       1.00673950
H       -0.08610752      -2.01802373       1.44958019
