21
Properties=species:S:1:pos:R:3 pbc="F F F"
H        0.00000000       0.00000000       0.00000000
H        0.73469222      -0.22961354      -0.67884368
H       -0.64608496      -0.34709048      -0.64043999
H        0.53187281       0.68549418       0.44189355
H        0.36543348      -0.17619763      -1.63493919
H       -0.28082743      -0.18742155      -1.58617592
H        1.66742408       0.02103004      -0.55535322
H        1.79000771      -0.20858350      -1.54811430
H        0.86399645      -0.33297041      -1.97279644
H        1.76490009       0.64021564      -2.02452874
H       -0.57509661       0.30762655      -2.43567991
H       -0.04523540       0.68608075      -1.71174598
H        1.25649619       1.21144581      -0.05972365
H       -0.30674100       0.16536936      -1.97399831
H        0.71197224       0.65894157      -2.25930429
H        1.69914997       1.29583907      -0.92285538
H        1.05983806       1.38023233      -1.65238881
H       -0.56692612       0.70659184      -1.04535747
H       -0.63630432       0.76912308      -0.82602644
H        2.11518669       0.64684814      -1.18975723
H       -0.42125297      -0.73410547      -0.86330765
