21
Properties=species:S:1:pos:R:3 pbc="F F F"
H        0.00000000       0.00000000       0.00000000
H        0.54628479      -0.64623839      -0.66938484
H        0.03114647       0.16742241      -0.52568543
H        1.16444683      -1.52675223      -0.58754236
H       -0.15776351       0.09807859       1.11622679
H        0.69891953      -0.42787296       1.32309127
H       -0.23652796      -0.01963938       1.10640848
H        1.04095078      -0.77988350       1.41850185
H        0.94671774      -0.85497808       1.40168691
H        1.26232588      -1.95824182       0.33850318
H        0.92699540      -1.24916196       0.91540879
H        1.44821286      -0.82993549       0.11048853
H        1.69267023      -0.12113273       0.95802033
H        2.48030186       0.44143432       2.03413820
H        2.48030186       0.44143432       2.03413820
H        2.48030186       0.44143432       2.03413820
H        2.48030186       0.44143432       2.03413820
H        2.48030186       0.44143432       2.03413820
H        2.48030186       0.44143432       2.03413820
H        2.48030186       0.44143432       2.03413820
H        2.48030186       0.44143432       2.03413820
