21
Properties=species:S:1:pos:R:3 pbc="F F F"
H        0.00000000       0.00000000       0.00000000
H        0.75986940       0.40936196      -0.45064643
H       -0.05928391       0.99518281      -0.25284445
H       -0.73085141       1.83032036      -0.37802336
H        1.63187170       0.24969302      -0.96779406
H       -1.66077805       1.60070682      -0.00946158
H       -0.45513630      -0.81366080       0.28083447
H        0.28845763      -0.20376074       0.43298885
H        0.30593908       1.69317579      -0.81014335
H        0.04571581       2.12160873      -1.14780593
H       -1.67655587       1.10565877      -0.90835100
H        0.70158559       0.61613262      -0.43792552
H        1.78537619      -1.17802203      -0.78629684
H        1.79165113      -1.17802203      -0.79179585
H        1.79165113      -1.17802203      -0.79179585
H        1.79772925      -1.17802203      -0.79751158
H        1.79165113      -1.17802203      -0.79179585
H        1.79165113      -1.17802203      -0.79179585
H        1.79165113      -1.17802203      -0.79179585
H        1.79165113      -1.17802203      -0.79179585
H        1.79772925      -1.17802203      -0.79751158
