21
Properties=species:S:1:pos:R:3 pbc="F F F"
H        0.00000000       0.00000000       0.00000000
H        0.05110265      -0.33235219      -0.96966726
H        0.84273684      -0.94706678      -0.74883872
H        1.01868391      -0.75230819       0.24334860
H        1.63234532      -1.35642874      -1.14507377
H        2.52401328      -1.37424123      -0.63720095
H        0.57083946       0.11800810       0.77992135
H        0.56260830      -0.63430011       1.09548116
H        1.74536717      -0.38645610      -0.38227719
H        1.20125532       0.03291208      -1.21426272
H        1.74553609      -0.58182663      -1.72407317
H        0.53147829       0.39019570      -1.51783490
H       -0.30890828      -1.16025162       0.96449357
H        1.14785314       0.87166876       0.56286919
H        2.20381308      -0.39931327      -2.37382960
H        1.34092128       1.82600617       0.56795311
H        2.67162991      -0.50446421      -0.65827042
H        1.06576324       1.18459475      -1.88769126
H        1.24798524       0.16705120      -0.24806547
H       -0.38504338      -0.72047520       0.09912598
H       -0.30780461      -1.24642682      -0.77878803
