21
Properties=species:S:1:pos:R:3 pbc="F F F"
H        0.00000000       0.00000000       0.00000000
H        0.47219095      -0.55577880       0.64514065
H        0.36986193      -0.53887981       1.61328530
H       -0.41513640      -0.34709048      -0.80947566
H       -1.35051441      -0.22908238      -1.05279231
H       -0.87878406      -0.96089363      -1.48866355
H        0.56499231      -1.33038092       0.06252545
H       -0.39666328      -0.85418832       2.12424564
H       -1.31090236      -1.92750001      -1.88793397
H       -0.27568543      -1.24142587      -0.51942986
H       -0.19206429      -1.18708825       0.56717420
H       -1.99544585      -0.66890752      -0.23359257
H       -1.06746745      -0.65200853       0.06073973
H       -0.82242775      -0.20606343       0.35984468
H       -1.08159077      -2.08716893      -2.87547922
H       -1.64535666      -0.97183472      -2.05576706
H       -2.33108377      -0.38576090      -1.10263586
H       -1.20239496      -1.61374295      -0.86133289
H       -1.03775442      -1.43737912       1.68045330
H       -0.84363198      -1.67825413       1.49052227
H        0.15456066      -1.46557498       1.84763491
