14
Properties=species:S:1:pos:R:3 pbc="F F F"
H        0.00000000       0.00000000       0.00000000
H       -0.27385142       0.28314662      -0.89044607
H       -0.45877987      -0.42593330      -0.24930012
H        0.65528476      -0.20474620       0.83235097
H        1.28848958      -0.86582881       1.16413748
H        1.70090532      -1.74567652       1.10215199
H        0.66106117      -0.45646685       0.54219109
H        2.23606896      -1.82094610       1.78192353
H        2.29528713      -1.00285006       2.20091033
H       -0.59280521       0.36093405      -0.51332861
H        1.38737726      -1.08724332       1.85938680
H        2.74260092      -0.13800567       2.19698477
H        1.96555698      -1.33919525       1.77004659
H        2.81080008      -0.24986869       2.67951512
