21
Properties=species:S:1:pos:R:3 pbc="F F F"
H        0.00000000       0.00000000       0.00000000
H       -0.32983679       0.96807545      -0.08579928
H        0.08195565      -0.58319080       0.77539194
H        0.77461576      -1.05285180       1.27308798
H        0.50864536       0.49841443      -0.24209088
H        1.35075498      -0.28148329       1.62858510
H        1.58322465      -1.13028240       1.21198106
H       -0.65847898       1.89154124       0.47959965
H        0.43687651       0.29665685       0.99439001
H        0.29657745       1.12838793       1.48080611
H        1.23972392       1.32314646       1.12602782
H       -0.48832321       1.24639606       2.04477930
H        1.54218817       1.30624747       2.05138755
H       -0.24750136       1.93468177       0.49675024
H        2.45124435      -0.80122012       0.56488693
H        0.77399850       0.97389531       2.64531565
H        1.48597443       0.49258667       2.58323050
H        1.41116261       0.81372297      -0.05741757
H        0.94092143       0.57573795       0.48930067
H       -0.31360257       0.72073162       2.82835364
H        1.82792449      -0.99597871       1.35663533
