21
Properties=species:S:1:pos:R:3 pbc="F F F"
H        0.00000000       0.00000000       0.00000000
H        0.59380746      -0.49897972      -0.58861941
H        0.20089495      -0.26936617      -1.50852227
H        0.95052093       0.08895500       0.37672392
H        1.13251877      -0.32278210      -1.93577838
H       -0.54216099       0.42745057      -1.38346946
H        2.03711104      -0.10494360      -1.64886355
H        2.69663429       0.50495648      -1.27321482
H        1.16417456       0.48013592      -1.48560238
H        0.05918294       0.85894012      -0.67246580
H        0.34214228       0.77454102      -1.16993546
H        1.83504045       1.00000453      -1.52993894
H        3.22020292       0.69924486      -0.60817128
H        1.41130245      -0.30995619      -0.44903287
H        1.84438241       1.75166273      -2.06216121
H        2.19857597      -0.01150438      -1.03593218
H        3.64502454       0.77703232      -0.86011505
H        1.75740194       0.80605698      -1.44674659
H        1.29351878       1.01636195       0.10178256
H        1.75335228       1.21112049      -0.79484791
H        1.66003191       2.26480293      -1.19673800
