21
Properties=species:S:1:pos:R:3 pbc="F F F"
H        0.00000000       0.00000000       0.00000000
H        0.63848275      -0.52769721      -0.51179713
H       -0.85703814       0.36585209      -0.43007183
H        1.46498537      -0.82614899      -1.04202700
H        2.05987096      -0.57550538      -1.77096438
H       -1.11038327       0.34895310      -1.37006736
H        0.56788188      -0.47905850      -0.89104879
H       -0.27773434       0.06580648      -1.78790057
H       -0.22142664       0.45361727      -0.95358741
H        1.26473486       0.10225689      -2.20555353
H        1.61989808       0.82480478      -2.84203410
H        1.06990921       0.39331520      -2.09060025
H        1.11185098       0.03776431      -1.84599364
H        1.06867313      -0.02968311      -1.77966261
H        1.12863517       0.00438994      -2.04843926
H        1.15301347       0.07039976      -1.97316992
H       -0.09770812      -0.76648176      -2.13893414
H        1.15857589       0.03776431      -2.07434249
H        1.20722008       0.00438994      -2.23698878
H        1.89369357       2.00598192      -3.63243365
H        1.89369357       2.00598192      -3.63243365
