21
Properties=species:S:1:pos:R:3 pbc="F F F"
H        0.00000000       0.00000000       0.00000000
H        0.42330277      -0.73181123      -0.48304045
H        0.04239655      -1.62560201      -0.41893575
H        1.17017579      -1.06416345       0.13748080
H        1.66505480      -1.70703101       0.76608241
H       -0.95262611      -0.05067664       0.19492666
H        0.76740432      -0.08439321       0.59332067
H        0.53379017      -1.00800824       1.00695610
H       -1.06820536      -0.93052429       0.59563905
H       -0.85585517      -0.73617083       0.87961197
H        1.41544509      -1.72484350       1.76142240
H        1.68581986       0.03999369       1.03418875
H        0.91430229      -0.99303228       1.35971451
H        0.85041314      -0.54582715       1.14479363
H        2.18404078      -0.71166450       0.84677565
H        1.81758320      -1.03819466       0.75145030
H       -0.41699687      -1.64250100       0.43939576
H       -0.70958728      -1.58314323      -0.73235238
H       -1.29479933      -0.89088941      -0.56910574
H       -0.79288393      -0.22064346       0.02433783
H       -0.17349911      -1.26346767      -1.40501642
