21
Properties=species:S:1:pos:R:3 pbc="F F F"
H        0.00000000       0.00000000       0.00000000
H       -0.32486421      -0.96807545       0.10303906
H        0.55663162      -0.77136850      -0.38532564
H       -0.03155094      -0.49504808       0.89847416
H        0.85771203      -0.21558970       0.35529658
H        0.52728873      -1.27034819       0.45026943
H        0.83287406      -0.29102904       0.47985938
H        0.68016696      -0.38675475      -1.38579488
H       -0.04875997       0.55292344      -0.92521644
H        0.93402612       0.31786281      -0.60913736
H       -0.16273612      -0.50458550      -0.74407649
H        0.68991691      -0.72225767      -0.45851374
H       -1.08221757      -0.19242154       0.56706023
H       -1.08221757      -0.19242154       0.56706023
H       -1.08221757      -0.19242154       0.56706023
H       -1.08221757      -0.19242154       0.56706023
H       -1.08221757      -0.19242154       0.56706023
H       -1.08221757      -0.19242154       0.56706023
H       -1.08221757      -0.19242154       0.56706023
H       -1.08221757      -0.19242154       0.56706023
H       -1.08221757      -0.19242154       0.56706023
