7
Properties=species:S:1:pos:R:3 pbc="F F F"
H        0.00000000       0.00000000       0.00000000
H       -0.02074104      -0.97334045      -0.01546210
H        0.17471822      -1.09772730      -1.01528585
H       -0.63714051      -0.37845421      -0.63157368
H        0.30535468      -0.08011079      -0.98855495
H        0.76589406      -0.52769721      -0.28810224
H        0.14070040      -0.96427506      -0.95576704
