6
Properties=species:S:1:pos:R:3 pbc="F F F"
H        0.00000000       0.00000000       0.00000000
H        0.24483983      -0.86484438      -0.37437752
H        0.36703399      -0.12438690      -0.95033562
H        1.23277080      -0.51544845      -0.63136458
H        0.89922762      -0.43105525       0.27950734
H        0.93058145       0.33235219      -0.27728006
