21
Properties=species:S:1:pos:R:3 pbc="F F F"
H        0.00000000       0.00000000       0.00000000
H        0.54069358       0.79439902       0.36042264
H       -0.47331387       0.91878593       0.45860943
H        0.00446144       1.29724014       1.21792758
H        0.30744648       0.42854694       1.29051507
H        0.73243201      -0.15966894       0.70098001
H       -0.70114183       0.68734008       1.49758232
H       -0.25371110       0.01212901       0.73755169
H       -0.49771467       0.58582085       0.68001312
H       -0.07554847       0.75366068      -0.61184061
H       -0.88491583       0.34429872      -0.25771040
H       -0.62790465       1.16966534      -0.00341600
H       -0.12005872      -0.00225639      -0.09698012
H       -0.83617097       0.88442641      -1.36581731
H       -0.83617097       0.88442641      -1.36581731
H       -0.83617097       0.88442641      -1.36581731
H       -0.83617097       0.88442641      -1.36581731
H       -0.83248955       0.92151779      -1.36216807
H        0.41978291       1.65387392      -0.13777965
H        0.41978291       1.65387392      -0.13777965
H        0.41978291       1.65387392      -0.13777965
