6
Properties=species:S:1:pos:R:3 pbc="F F F"
H        0.00000000       0.00000000       0.00000000
H        0.42330277      -0.73181123      -0.48304045
H       -0.04485801      -1.01495790       0.32238758
H        0.84583741      -1.09766328       0.37773860
H        0.36335838      -0.41216910       0.87308955
H        0.91344333      -0.12191117       0.09648108
