6
Properties=species:S:1:pos:R:3 pbc="F F F"
H        0.00000000       0.00000000       0.00000000
H       -0.37664786      -0.36585209      -0.88182342
H       -0.40217012       0.52595156      -0.78419268
H       -1.26924193       0.08617511      -0.73086345
H       -0.84554547       0.46966103       0.11194722
H       -0.76862741      -0.54271865      -0.03803545
