6
Properties=species:S:1:pos:R:3 pbc="F F F"
H        0.00000000       0.00000000       0.00000000
H       -0.51304650      -0.77136850      -0.44169885
H       -0.37345037      -1.32714725       0.34550107
H        0.14247230      -0.54141009       0.87518799
H       -0.78119749      -0.49504808       0.44495127
H        0.39300102      -0.92284930      -0.11891055
