6
Properties=species:S:1:pos:R:3 pbc="F F F"
H        0.00000000       0.00000000       0.00000000
H        0.59380746      -0.49897972      -0.58861941
H       -0.09793752       0.11573485      -1.03239739
H       -0.78378004      -0.43148959      -0.50282162
H       -0.12674163      -0.90589249      -1.12605584
H       -0.12190115      -1.02493131      -0.07436258
