6
Properties=species:S:1:pos:R:3 pbc="F F F"
H        0.00000000       0.00000000       0.00000000
H       -0.73394406      -0.63587439       0.07106813
H       -0.26526350      -0.48439360      -0.76884437
H        0.06198820      -0.90665692       0.34955916
H       -0.21719027      -1.37631798      -0.45638052
H        0.62879223      -0.74858546      -0.33966970
