21
Properties=species:S:1:pos:R:3 pbc="F F F"
H        0.00000000       0.00000000       0.00000000
H       -0.04850490       0.68549418       0.68978679
H       -0.64886862       0.40936196      -0.59954423
H       -0.67262721       1.18073046       0.07702810
H       -0.86253941       0.20141131       0.31825683
H        0.22754401       0.92740691      -0.37611702
H        0.02646776       0.77592611       0.56445873
H        0.07281137      -0.76828521      -0.82759124
H        0.07510437      -0.73898917      -0.85365403
H        0.07281137      -0.76828521      -0.82759124
H        0.07281137      -0.76828521      -0.82759124
H        0.07281137      -0.76828521      -0.82759124
H        0.07281137      -0.76828521      -0.82759124
H        0.07510437      -0.73898917      -0.85365403
H        0.07510437      -0.73898917      -0.85365403
H        0.07510437      -0.73898917      -0.85365403
H        0.07510437      -0.73898917      -0.85365403
H        0.07510437      -0.73898917      -0.85365403
H        0.07510437      -0.73898917      -0.85365403
H        0.07281137      -0.76828521      -0.82759124
H        0.07281137      -0.76828521      -0.82759124
