13
Properties=species:S:1:pos:R:3 pbc="F F F"
H        0.00000000       0.00000000       0.00000000
H       -0.72715116       0.63587439       0.12237607
H       -0.99083847      -0.24397326      -0.20073070
H       -0.26671764       0.05341591      -0.98961222
H       -0.57962292      -0.77167046       0.50672841
H       -1.27118540       0.05268359       0.68092442
H       -0.29785192       0.07712865       0.89170390
H        0.12006930       0.94809598      -0.66825974
H       -0.73739707       1.07248282      -1.21835351
H        0.08592290       1.51225924      -1.49548495
H        0.63292301       0.71764910      -1.36340010
H       -0.15023315       0.74013066      -1.99172568
H       -0.18116212       0.21417910      -1.11096334
