6
Properties=species:S:1:pos:R:3 pbc="F F F"
H        0.00000000       0.00000000       0.00000000
H        0.87909138       0.39891118       0.34841394
H        0.81616211       0.02045697       1.24332917
H        0.72250795      -0.60701185       0.47850746
H       -0.09562105      -0.34709048       0.90467983
H        0.06322142       0.65883255       0.77735436
