21
Properties=species:S:1:pos:R:3 pbc="F F F"
H        0.00000000       0.00000000       0.00000000
H       -0.90169489       0.25064358      -0.26867270
H       -0.18911645       0.49897972      -0.81444162
H       -0.73034912      -0.75527942      -0.37859690
H       -0.02602077      -0.49108756      -1.07677174
H       -0.87113059      -0.17126623      -1.18720293
H       -0.02602077      -0.19263574      -0.09480923
H       -1.82792592       0.89654875      -0.34197754
H       -1.77121985       0.84039354      -1.41796947
H       -2.64570451       0.75600034      -0.99818933
H       -2.50858331       1.61364269      -0.45140672
H       -2.36450887       1.47281623      -1.46492422
H       -1.56904840       1.65758717      -0.93467581
H       -1.84649777       0.86391330      -0.37692621
H       -1.36028600       2.06563020      -0.73487812
H       -2.46814394       2.02168584      -0.16528523
H       -2.46814394       2.02168584      -0.16528523
H       -1.35018110       2.05535579      -0.72520703
H       -1.36541343       2.05535579      -0.71037042
H       -1.38552582       2.12075901      -1.36434639
H       -1.79896295       1.12068844      -1.23750329
