6
Properties=species:S:1:pos:R:3 pbc="F F F"
H        0.00000000       0.00000000       0.00000000
H       -0.06381270       0.34709048       0.90747839
H        0.69469631      -0.06891423       0.59134233
H        0.76495159       0.87814766       0.80628163
H        0.75529945       0.61657995      -0.09748697
H       -0.05676633       0.93156356       0.19370484
