21
Properties=species:S:1:pos:R:3 pbc="F F F"
H        0.00000000       0.00000000       0.00000000
H       -0.02481474      -0.91159266      -0.47085762
H        0.81825733      -0.52769721      -0.00718072
H       -0.47868294      -0.76011187       0.37715065
H        0.24899419      -1.43754423       0.36683416
H        0.24855345      -0.36802828       0.83142954
H        0.79176009      -0.66617572      -0.03778881
H        0.28571400       0.74961603       1.35988820
H        0.28571400       0.74961603       1.35988820
H        0.28571400       0.74961603       1.35988820
H        0.28571400       0.74961603       1.35988820
H        0.28571400       0.74961603       1.35988820
H        0.28571400       0.74961603       1.35988820
H        0.28571400       0.74961603       1.35988820
H        0.30423704       0.74961603       1.35825849
H        0.28571400       0.74961603       1.35988820
H        0.28571400       0.74961603       1.35988820
H        0.28571400       0.74961603       1.35988820
H        0.28571400       0.74961603       1.35988820
H        0.28571400       0.74961603       1.35988820
H        0.28571400       0.74961603       1.35988820
