13
Properties=species:S:1:pos:R:3 pbc="F F F"
H        0.00000000       0.00000000       0.00000000
H       -0.27385142       0.28314662      -0.89044607
H       -0.34129608      -0.61064416      -0.51011705
H        0.53428495      -0.79439902      -0.36985630
H        0.70999408       0.07044536      -0.78123367
H        0.25326499      -0.60962808      -1.28361142
H       -0.11322600       0.19328994      -1.02027726
H       -0.66483104      -1.51085734       0.09437627
H       -0.12762266      -1.32608640       0.88515294
H       -0.36943245      -0.60420042       0.29128692
H        0.19066554      -1.73544836       0.06103140
H       -0.17671809      -1.04319453      -0.42286101
H        0.44757539      -0.71618634       0.38994581
