6
Properties=species:S:1:pos:R:3 pbc="F F F"
H        0.00000000       0.00000000       0.00000000
H       -0.92501378       0.29845181       0.32954502
H       -0.65474778      -0.69681674       0.37292853
H       -0.77175772      -0.19783702       1.20081067
H       -0.11056596       0.49897972       0.83943015
H        0.15759701      -0.46720320       0.95662141
