21
Properties=species:S:1:pos:R:3 pbc="F F F"
H        0.00000000       0.00000000       0.00000000
H       -0.12270200      -0.91159266      -0.45526573
H       -0.89394063      -0.12438690      -0.48859170
H       -0.97090864      -0.66094911      -0.04809982
H       -1.18337727       0.15875971       0.39691111
H       -1.72586203       0.53721392      -0.31761232
H       -0.07834780      -0.46619052       0.41958404
H       -0.44560745      -0.13699055      -0.94901121
H       -1.98204291      -0.42706114       0.12807834
H        0.57484722       0.21240535      -0.92214024
H        0.77625215      -0.60125542      -0.42670798
H        0.24532652      -0.68564862      -1.23853111
H       -1.64788926      -0.42112714      -0.80713242
H        0.15816227      -0.18650582      -0.07327771
H       -0.24202698      -0.86023831       0.92034435
H       -0.24202698      -0.86023831       0.92034435
H       -0.24202698      -0.86023831       0.92034435
H       -0.77267182      -0.10858011       0.87834746
H       -0.59526366      -0.41036507      -0.43015403
H        0.27469587       1.07005370      -1.07275975
H       -0.32595044       0.73770154      -0.30981153
