6
Properties=species:S:1:pos:R:3 pbc="F F F"
H        0.00000000       0.00000000       0.00000000
H        0.45934626      -0.55622131       0.73002923
H        0.87537986       0.33235219       0.42020965
H        0.47876453       0.24795899       1.30544138
H        0.02341789       0.70907992       0.66687196
H       -0.36398140      -0.11800810       0.89535052
