6
Properties=species:S:1:pos:R:3 pbc="F F F"
H        0.00000000       0.00000000       0.00000000
H       -0.07115869       0.77136850       0.67323917
H        0.48995781       0.75446951      -0.12232578
H        0.95183295       0.82478440       0.73615843
H        1.02422571       0.01781246       0.06299517
H        0.48110867      -0.10019565       0.86246932
