21
Properties=species:S:1:pos:R:3 pbc="F F F"
H        0.00000000       0.00000000       0.00000000
H       -0.81573808      -0.52769721      -0.06456009
H       -0.72368902       0.25064358       0.60125935
H       -0.47692916       0.87668937      -0.23932867
H       -1.33384323       0.32046807      -0.33751208
H       -0.66114122       0.02201626      -1.05285978
H       -0.27516010      -0.03139965      -0.10339195
H        0.71121234       0.10008568      -0.45240068
H       -1.49811530       0.82053417      -0.58306235
H        0.74654895       0.15202743      -0.55135638
H        0.24446106       0.16530889      -0.96516997
H        0.26497930       0.18987335      -0.52536368
H       -1.47934759       1.00745511      -0.61640292
H       -1.21946967       1.64497459      -0.61194426
H       -1.21946967       1.64497459      -0.61194426
H       -1.19519067       1.67334485      -0.59976077
H       -1.18185985       0.58065116      -0.07994807
H       -1.28123832       0.58065116      -0.14007026
H       -0.46872041      -0.76372087      -1.76680565
H       -1.24048162      -0.26474115      -2.08846521
H       -1.49578452      -0.58004963      -1.20333135
