6
Properties=species:S:1:pos:R:3 pbc="F F F"
H        0.00000000       0.00000000       0.00000000
H        0.52691501       0.55577880      -0.60127473
H       -0.30292159       0.06073073      -0.94713938
H       -0.81566536       0.38723427      -0.18187210
H       -0.37820089       0.99713433      -0.80212021
H        0.03323030       0.91318583       0.05492967
