6
Properties=species:S:1:pos:R:3 pbc="F F F"
H        0.00000000       0.00000000       0.00000000
H        0.75529516      -0.29845181       0.62751859
H        0.90732777      -0.18044370      -0.32695568
H        0.00309283      -0.96869779       0.43185082
H        0.22222942      -0.84152633      -0.53109038
H        0.97421956      -1.03628492       0.13965839
