6
Properties=species:S:1:pos:R:3 pbc="F F F"
H        0.00000000       0.00000000       0.00000000
H       -0.29363519      -0.58319080       0.72230726
H        0.00000000       0.22961354       1.00030065
H        0.86129087       0.05067664       0.45129901
H        0.51100850      -0.76796174       0.20610076
H        0.55178356      -0.56403792       1.21264982
