7
Properties=species:S:1:pos:R:3 pbc="F F F"
H        0.00000000       0.00000000       0.00000000
H        0.54628479      -0.64623839      -0.66938484
H        0.45411637       0.31422448      -0.80006355
H       -0.56169093       0.22526948      -0.91645265
H       -0.50514644      -0.63587439      -0.53717005
H       -0.00969672      -0.44497645      -1.46362412
H       -0.02772126      -0.43318403      -1.31244707
