11
Properties=species:S:1:pos:R:3 pbc="F F F"
H        0.00000000       0.00000000       0.00000000
H       -0.39122835      -0.01598554      -0.83368021
H        0.47208750       0.55622131      -0.72185534
H        0.01025426       1.17093587      -0.04203188
H       -0.73544490       0.69681674      -0.16398503
H       -0.40034306       1.28894401      -0.91698605
H       -1.24713159       1.47371495      -0.47328591
H       -0.38257670       2.12067509      -0.41105247
H        0.10401458       0.96543115      -0.07200361
H       -0.90698206       2.22950506      -1.06794631
H       -0.76167166      -0.36069220      -0.37638649
