21
Properties=species:S:1:pos:R:3 pbc="F F F"
H        0.00000000       0.00000000       0.00000000
H       -0.47398776      -0.23709527       0.75329894
H       -0.29265839       0.74222386       1.00104392
H       -0.36776894       0.37280479       1.50483096
H       -0.56078023       0.92164785       0.01476662
H       -0.82259417       1.50746870       0.81576049
H       -0.55338019       0.84638608       1.47799492
H       -0.11439540       0.92740691      -0.42444548
H       -0.46766368       1.57364535       0.36403707
H       -0.03330480      -0.21783850       0.94841868
H       -1.18648887       0.56536502       0.63315392
H       -0.08873776       1.26299596      -1.88619840
H        0.18998617       1.64145017      -1.03346968
H        0.53722048       0.88454175      -1.24354017
H       -0.65993071       2.01040459      -1.47578013
H       -0.80764586       1.20748663      -1.90220797
H       -0.88278556       0.54640400      -1.19130373
H       -0.80181026       1.85073566      -0.47193754
H       -0.30684119       0.59981990      -0.34350723
H       -0.41373125       1.40404642      -0.87863535
H       -0.18112725       1.19264245      -0.68714225
