21
Properties=species:S:1:pos:R:3 pbc="F F F"
H        0.00000000       0.00000000       0.00000000
H       -0.37664786      -0.36585209      -0.88182342
H       -0.36483115       0.55577880      -0.71138525
H       -1.21678972       0.40429801      -0.26497611
H       -0.59105891      -0.70907992       0.30970296
H        0.30288178      -0.58469301      -0.17888868
H       -1.13157034       0.35362136      -1.23359907
H       -1.76808834      -0.39031214      -0.15216920
H       -0.22807902      -0.90000153      -0.93169814
H       -0.41587836      -1.30724096      -0.05792478
H       -0.81936896      -0.06243956      -0.97849470
H       -0.66957879      -0.14862543       0.48266223
H       -1.48824906      -0.79803491      -0.18066484
H       -0.68439436      -0.51122302      -1.22182393
H       -1.08931732      -0.19656280      -0.33578721
H       -1.25923407      -1.00897622      -0.27730393
H        0.08116838       0.00411189      -1.29882526
H       -0.37022629       0.10391074      -0.29243037
H       -0.57472062      -0.64779842      -0.28556046
H       -0.10762203      -1.00626779       0.43818718
H       -0.30336353       0.97907817      -1.04249895
