21
Properties=species:S:1:pos:R:3 pbc="F F F"
H        0.00000000       0.00000000       0.00000000
H        0.97460508       0.08895500       0.30912116
H       -0.01794395       0.08895500      -1.02229595
H        0.38857466       0.68549418       0.57198626
H        0.88104939      -0.40609306      -1.03018522
H        0.08296285       0.77136850      -0.67188674
H        1.50635672       0.53322893      -0.29767266
H        1.24142194       1.43988585      -0.06135999
H        0.93225938       0.07205600      -1.23416626
H        0.93987697       1.32758975      -0.77007002
H        1.32835853       0.81625992       0.05833864
H        0.91629982       1.35718942      -0.79713595
H        2.00432897      -0.17585099       0.14650106
H        0.25508392       1.04349136      -0.26608062
H        1.20354843       1.71094429      -1.00578117
H        2.05936599      -0.26117009       0.04355267
H        0.71503109       0.64187843      -0.45559442
H        1.33879662       0.86666614      -0.84508657
H        0.97427320       0.78321201      -0.83666855
H        0.43494540       1.82922852       0.45113224
H        0.43494540       1.82922852       0.45113224
