21
Properties=species:S:1:pos:R:3 pbc="F F F"
H        0.00000000       0.00000000       0.00000000
H        0.63883960       0.60990006      -0.40983751
H        0.57425880      -0.41172725      -0.48353216
H       -0.25265065       0.93864530      -0.05633450
H        0.07012904       1.33244801      -0.86570668
H       -0.96798605       0.33235219      -0.07660947
H       -0.51738030      -0.52769721      -0.63396704
H       -1.08642828       0.45036030      -1.03583121
H       -1.12881911       0.42130721      -1.08633399
H       -0.01606447       0.58503950      -1.56375766
H       -0.02288406       0.72254795      -1.61898708
H       -0.20246542      -0.46514314      -1.15224004
H       -0.93754369       0.17073125      -1.21041644
H       -1.53535688      -0.61286652      -1.01444066
H       -1.61055386      -0.65033817      -0.92295557
H       -0.73164248       0.75123906       0.64646071
H        0.31196141      -1.04813242      -1.08725142
H        0.29554284      -1.04813242      -1.11607742
H        0.61278123      -1.25122905      -1.30421805
H       -1.28811526       1.38187778       1.88848853
H       -1.80474997       2.02474546       2.49933529
