21
Properties=species:S:1:pos:R:3 pbc="F F F"
H        0.00000000       0.00000000       0.00000000
H        0.54628479      -0.64623839      -0.66938484
H        0.24569654       0.27219224      -0.55025142
H        1.23903549      -1.01209044      -0.00638217
H        0.63957262      -0.72254789      -0.34956440
H        0.90458298      -0.40219039       0.67495799
H       -0.32041314       0.25623283       0.28579742
H        0.51963198       0.47765726       0.51451564
H        0.35328436       0.39241976       0.78776491
H        1.01747000      -0.45631164       0.76178420
H        0.88206661      -0.24339199       1.23122668
H       -0.57783711      -0.68587089      -0.02963462
H        1.24808252       0.51358086      -0.23231885
H        1.89445853       0.04391983      -0.78880548
H        1.49692738       0.92376745      -0.66271824
H        1.62655187       2.33864713      -1.14366841
H        1.83992159       2.36978865      -0.86613357
H        1.87289691       2.17724490      -1.39582205
H        2.04096127      -0.91654301      -0.72470474
H        1.60959327       2.33864713      -1.14792132
H        1.71653199      -0.83495641      -0.57843274
