21
Properties=species:S:1:pos:R:3 pbc="F F F"
H        0.00000000       0.00000000       0.00000000
H       -0.47549847       0.19475858       0.88842231
H        0.47068134       0.72254789       0.55651373
H        0.52823168       0.77136850      -0.42342168
H        0.20352390      -0.01689900       0.95202595
H        0.17451814       0.47790521       1.55578065
H       -0.44991931       0.91730648       1.61684120
H        0.30310693       1.49204385       0.76936877
H       -0.59408331       1.58099890       0.27900097
H        0.35926196       1.41628623       1.40635169
H       -0.50035191       1.96170485       1.05560863
H       -1.27362013       1.46665680       0.59701586
H        0.69706202       0.82066298       1.28101504
H        0.95798957       1.10695755      -1.82080770
H       -0.74793804       0.75763756       0.64781356
H       -0.55589652       0.85764241       0.09355474
H        1.01559138       0.58957225      -1.83034420
H        1.89790058       1.37114942      -2.13718390
H       -1.04869103       1.35180473       1.58040106
H        1.21015787       0.90137970      -1.75311112
H        0.14209715       1.29906571       0.29803288
