21
Properties=species:S:1:pos:R:3 pbc="F F F"
H        0.00000000       0.00000000       0.00000000
H        0.45934626      -0.55622131       0.73002923
H       -0.82548523       0.46354809       0.39625889
H        0.12829000       0.44664910       0.59142065
H       -0.62350142      -0.64844042       0.19775951
H       -0.60568470      -0.81092590       0.37372792
H        0.26778954      -0.26243082       1.24395919
H       -0.11539802      -0.79331660       1.40958261
H       -0.27860531      -1.11200011       0.42246103
H       -1.43196058      -0.25899979       0.80053115
H       -0.71765155       0.46354809       1.07324862
H       -0.32850072       0.00384814       1.68026829
H       -0.38774383      -0.93649328      -0.03649563
H       -0.74500066       0.00250790       0.69040912
H       -0.35672346      -1.05520105       0.54806697
H        0.42265645      -0.67583513       0.72714216
H        0.19724004      -0.81092590       0.68382955
H        0.59026408       1.42161536       0.60358548
H        0.59026408       1.42161536       0.60358548
H       -0.15447076       1.07976222      -0.30120298
H       -0.15447076       1.07976222      -0.30120298
