21
Properties=species:S:1:pos:R:3 pbc="F F F"
H        0.00000000       0.00000000       0.00000000
H       -0.27385142       0.28314662      -0.89044607
H       -0.35715270      -0.56565249      -0.42069945
H        0.37382233      -0.89379078      -0.09724112
H        1.07597113      -0.70901978      -0.74601513
H        0.56124592      -0.82702786       0.07202703
H        0.24823928      -1.24372673       0.38489097
H        0.17162490      -1.04460883       0.40269631
H        0.79735446      -1.25347745      -0.20741308
H       -0.43137604      -0.45361727       0.87879092
H       -0.94915646       0.13599694       1.25083077
H       -0.31992221      -0.59581429       1.37958479
H       -0.46910185      -0.41936818       0.87647086
H       -1.35621917      -0.38960725      -0.92204273
H       -1.35621917      -0.38960725      -0.92204273
H       -1.35621917      -0.38960725      -0.92204273
H       -1.35621917      -0.38960725      -0.92204273
H       -1.35621917      -0.38960725      -0.92204273
H       -2.15750790      -0.10646063      -1.39725327
H       -1.35621917      -0.38960725      -0.92204273
H       -1.35621917      -0.38960725      -0.92204273
