21
Properties=species:S:1:pos:R:3 pbc="F F F"
H        0.00000000       0.00000000       0.00000000
H       -0.90169489       0.25064358      -0.26867270
H       -0.01524577       0.43977645      -0.86857653
H       -0.98780406      -0.76697290      -0.16686091
H       -0.25381830      -0.28277144      -1.55729389
H        0.34850240      -0.51588881      -0.78074175
H       -0.20612299      -1.25084686      -1.21983433
H       -1.06549740      -0.66610134      -1.50910187
H       -0.76928258      -0.01956439       0.50168443
H       -1.01618266      -1.26774585      -0.67985415
H       -0.92144108      -0.49637735      -0.00952691
H       -0.99886429       0.18923637      -1.29186416
H       -1.34876883      -0.45666876      -0.43114108
H       -0.07668944      -0.71115601      -0.39228603
H       -1.41427922      -0.55817211      -0.72429484
H       -0.69508833      -0.22012559      -0.46228367
H       -0.72319162      -0.39407274      -0.77569914
H       -0.83737612      -0.29226914      -0.39896140
H       -0.79447162      -0.55967522       0.24795076
H        0.89085537      -1.22224760      -0.68057990
H        0.89085537      -1.22224760      -0.68057990
