21
Properties=species:S:1:pos:R:3 pbc="F F F"
H        0.00000000       0.00000000       0.00000000
H        0.41703188       0.87984765      -0.00365971
H        0.70044065      -0.08895500      -0.74484479
H       -0.38112223       0.37845421      -0.81214482
H        0.51691550       0.91696805      -0.65674698
H       -0.51269042      -0.31836253      -0.07021481
H        0.00118852       1.11118591      -1.21869206
H       -0.13188809      -0.31856853      -0.19002020
H        0.73145849       1.72864676      -0.36245903
H       -0.03853035       0.49423581      -0.99358422
H       -0.05894318       0.49636436      -1.01792932
H        1.31420636       0.59882784       0.23060006
H        1.31420636       0.59882784       0.23060006
H        1.31420636       0.59882784       0.23060006
H        1.31420636       0.59882784       0.23060006
H        1.31420636       0.59882784       0.23060006
H        1.31420636       0.59882784       0.23060006
H        1.31420636       0.59882784       0.23060006
H        1.31420636       0.59882784       0.23060006
H        1.31420636       0.59882784       0.23060006
H        1.31420636       0.59882784       0.23060006
