21
Properties=species:S:1:pos:R:3 pbc="F F F"
H        0.00000000       0.00000000       0.00000000
H        0.21426670       0.05341591       1.00227761
H       -0.73922235       0.28302944       1.30470121
H        0.03199682       0.94720668       1.34283102
H       -0.88525093      -0.29845181       0.42494830
H        0.63914442       0.63189816       0.65000111
H       -0.80835849       0.46966103      -0.27209541
H        0.05073076       1.36370945       0.90745538
H        0.36856207       1.03135729      -0.01006806
H       -1.43548393       0.62932998       0.52448690
H       -0.78327900       0.98525524       1.23800206
H        0.33021072      -0.13947034       0.04761046
H        0.19243318       0.10225958      -0.24205290
H       -0.84309858       1.15528154       1.17700386
H        0.96394813       0.64674354       0.80339056
H       -0.71167296       1.39802837       1.58994472
H       -2.49478555       0.42458379       0.51519108
H       -1.62294555       0.77167428       0.25541389
H       -3.25511742       1.60576105       0.16649196
H       -3.05611205       0.83439255      -0.48058721
H        1.08634448       0.87987649       0.63016856
