21
Properties=species:S:1:pos:R:3 pbc="F F F"
H        0.00000000       0.00000000       0.00000000
H        0.36925858       0.05341591      -0.95609558
H        0.20354335      -0.81647241      -0.58759409
H       -0.88491452       0.01689900      -0.40583456
H       -0.13903123      -0.24503590      -1.79626918
H       -0.89975107      -0.77273309      -1.49476981
H       -0.89362997      -0.82822669      -1.99256027
H       -0.64155310      -1.19492662      -0.28652042
H       -0.42652932       0.25394380      -1.01114178
H       -0.42440045      -0.56629181       0.22335237
H       -1.17643964      -0.24729286      -1.35374784
H        0.14012489      -1.04795396      -1.44168162
H       -1.13744283      -0.30024654      -0.20306453
H       -0.48769706      -0.44163215      -0.68429005
H       -0.31287384      -0.18198830      -1.35285294
H       -0.57051909      -1.45132935      -0.65890181
H       -0.64886069      -1.45132935      -0.73793387
H       -0.72931337      -1.41439354      -0.81696564
H       -1.37536275      -0.41187581      -1.08582771
H       -1.08311367      -0.61400354      -1.23395360
H       -0.71739745      -0.19499607      -0.95581901
