21
Properties=species:S:1:pos:R:3 pbc="F F F"
H        0.00000000       0.00000000       0.00000000
H       -0.32983679       0.96807545      -0.08579928
H        0.13574992       0.08439321       0.96047419
H        0.51676840       0.16878642       0.06841832
H        0.57286263       1.30042768       0.27197132
H        0.10797164       1.17604077      -0.63452089
H        1.07351232       0.54676700       0.63170230
H       -0.22710189       0.00264430      -0.01198132
H       -0.16747376      -0.51155657      -0.27107543
H       -1.57275915      -0.78621614      -0.48228765
H       -1.94279182      -1.44729877      -1.09393024
H       -2.52577114      -0.60144520      -0.55771202
H       -1.51969528      -0.63363796      -0.76681203
H       -1.71499348       1.08896303      -0.19542496
H        0.89085042       0.92539716      -0.11265928
H       -1.52659237       0.79051125      -1.15914452
H       -2.52545381       0.47424847      -0.05902836
H       -0.69000208       0.62026197      -0.58544153
H       -2.30114603      -2.34892273      -1.56592977
H       -2.41729856       1.33189082      -0.61226964
H       -0.71424758       0.56089771      -0.57545161
