21
Properties=species:S:1:pos:R:3 pbc="F F F"
H        0.00000000       0.00000000       0.00000000
H       -0.13959605      -0.55577880       0.78719991
H        0.47916692      -0.32616526       1.57316041
H       -0.38344675      -0.54400373       1.17755330
H       -0.32129133      -0.30926627       1.01904678
H       -0.39263958       0.43982518       0.96584618
H       -0.82736188      -0.50796151       0.85906476
H       -0.79529804      -0.55952758       0.81732911
H       -0.44680327       0.18251334       0.65769911
H       -0.42847067       0.05067664       0.87287217
H        0.33101535      -0.59070700      -0.35199994
H        0.34316459      -0.59070700      -0.34016642
H       -0.23652397       0.05067664       0.94315916
H        0.56913865      -0.76828521      -0.60521895
H        0.58706218      -0.73898917      -0.62427866
H        0.64646769       0.08895500      -0.79214299
H        0.64412618       0.12438690      -0.78927386
H       -0.44091684       0.48574555       1.34894168
H       -0.06804390      -1.09085810      -0.29303521
H       -0.03686591      -1.09085810      -0.29856408
H        0.00527958      -1.09085810      -0.30078518
