21
Properties=species:S:1:pos:R:3 pbc="F F F"
H        0.00000000       0.00000000       0.00000000
H        0.02715597      -1.02162731       0.09414954
H        0.52530235      -0.43977645      -0.69189227
H       -0.83563596      -0.86195838       0.62652135
H        0.23413303       0.48932126      -0.68422514
H       -0.41569462      -0.06734824       1.00109422
H       -0.36096624       0.69685572       0.22272837
H       -0.31087229      -0.19735941       2.49176836
H       -0.20606089       0.01072118       2.48432016
H       -1.13693154       0.01788926       0.91487873
H       -0.70643520       0.33100364      -0.67176998
H       -0.86565900      -0.73848069      -0.17187726
H       -1.50514555      -0.45259643       0.05011815
H       -1.05138791      -0.02110684      -0.76305139
H       -1.30474710       0.53678638      -0.13504675
H       -0.82989919       0.35855556      -0.80613971
H       -0.27695209      -0.55140573      -1.13037205
H       -0.26093280      -0.04622686      -0.11332139
H        1.48076892      -0.90847826       0.28906518
H       -0.93355417       0.64190024      -0.50196564
H       -0.16327904       1.09576690       1.14745188
