21
Properties=species:S:1:pos:R:3 pbc="F F F"
H        0.00000000       0.00000000       0.00000000
H       -0.96783787       0.05067664       0.09371616
H       -0.15063821      -0.96046287       0.05366630
H       -0.85107881      -0.87150788      -0.69117856
H       -0.69492781       0.43148959       0.61985153
H       -0.99877620      -1.15522146      -0.49044311
H       -1.64398623       0.48216623       0.40823627
H       -2.09120965      -0.22245133      -0.27560031
H       -0.07620560      -0.81647241      -0.61716241
H       -1.17736280      -0.13349633      -0.73417962
H       -0.64451057       0.41817057      -0.22420907
H        0.04562119       0.11093450      -0.19478995
H       -1.75643516       1.14324880      -0.29772824
H       -1.18046033      -0.64181948       0.12288859
H       -1.28262067       1.09257221      -1.14684105
H       -2.22345567       1.34321582      -1.15509725
H       -0.92333126       0.32289314      -1.50299144
H       -1.34050620       0.80863869      -2.85946345
H       -1.48690200      -0.79938376      -0.66328442
H       -0.26746699      -0.32901740      -0.44946402
H       -0.79152817      -0.33511448      -0.16205883
