21
Properties=species:S:1:pos:R:3 pbc="F F F"
H        0.00000000       0.00000000       0.00000000
H       -0.93989587      -0.24138860      -0.47165081
H       -0.32971728       0.36585209       0.90042359
H       -0.46111119      -0.64286757      -0.65377492
H       -0.08763137      -0.37867570       0.26494116
H       -1.45083618       0.50299662       0.96937799
H       -1.32596433      -0.56759793      -0.63100135
H       -1.41370296       0.65714061       1.04393947
H       -0.72087497       0.52573669       0.22864403
H        0.92503786       0.47752416      -0.43607444
H       -1.51281035      -0.15699539       0.31110570
H       -0.99714935      -0.33096465       1.25014460
H        1.72424245       1.03330302      -0.41502953
H        1.24386692       1.75585091      -0.96319711
H        0.81990910       0.89100653      -1.10590231
H        0.52159500       0.11963803      -0.49818254
H       -0.63026899      -1.16301072       0.02075589
H        1.34927058       0.32422310       0.13693309
H        1.40046060       1.21213078       0.37638536
H        0.90152019       1.60392880      -0.52847761
H       -0.59789288      -0.40549561       1.19582105
