21
Properties=species:S:1:pos:R:3 pbc="F F F"
H        0.00000000       0.00000000       0.00000000
H        0.63848275      -0.52769721      -0.51179713
H        0.40258476       0.05341591      -0.94254774
H       -0.80197603      -0.22961354      -0.59785950
H        0.02484745       0.26936617      -0.72212976
H        0.70039594      -0.84820819      -0.43019056
H       -0.76492077      -1.18395090      -0.78740650
H       -1.13688076      -0.83686042       0.04279518
H        0.01621831      -0.97496629       0.46184951
H       -0.07341623      -1.67899895      -0.21288687
H        0.09585133      -1.80669737      -0.03809348
H        0.10770616      -0.11662346       1.10915542
H       -0.05080391      -2.37170792      -0.08094001
H       -1.36205101      -0.81884432      -1.30149579
H       -0.00679950      -0.94835448       0.61602980
H       -0.69929671      -1.39263916      -0.62630200
H       -1.16283810      -1.39317727      -0.75746614
H        0.95960665      -1.99912965       0.88608164
H       -0.50619996      -1.41988444      -1.18697095
H        0.27819639      -2.66021228       1.10220838
H       -0.42884770      -1.62004972      -0.45568076
