21
Properties=species:S:1:pos:R:3 pbc="F F F"
H        0.00000000       0.00000000       0.00000000
H       -0.73394406      -0.63587439       0.07106813
H       -0.54850835      -0.51786631      -0.87748265
H        0.05717040      -0.97187352       0.01594784
H        0.29218319      -1.52765226      -0.74821168
H       -0.45401126      -0.02281824       0.01656520
H        0.60170233      -1.12874103      -1.64173937
H        0.64532226      -1.94521344      -1.02142167
H        0.12817252      -0.56306440      -1.41989875
H        1.05762005      -0.99455398      -1.36273289
H       -0.28383571      -0.36830580      -0.50031066
H        0.16841859      -1.72737491      -0.20095223
H       -0.21901476      -0.87857580       0.07742959
H        0.72437268      -0.46881729      -0.68384778
H       -0.04398948      -0.48297590      -0.41011143
H       -0.17112875      -2.02960658      -1.54520273
H        1.58476615      -0.57406777      -0.63092911
H        1.74579573      -0.74655747      -0.47484392
H        0.00262384      -0.94151860      -0.53160208
H        1.33643675       0.13268548      -1.01837707
H        0.34890595       0.14432180      -0.29836413
