21
Properties=species:S:1:pos:R:3 pbc="F F F"
H        0.00000000       0.00000000       0.00000000
H        0.12529835      -0.08895500      -1.01474690
H        0.28742835       0.82263768      -0.57198679
H       -0.65881979       0.19419162      -1.51778531
H       -0.40386927       0.96556014      -0.89063716
H       -0.45338073       1.43253779      -0.73716789
H       -0.73795158      -0.55577880      -0.30756819
H       -0.35853627       1.05225122       0.19177437
H       -1.06808186      -0.78539866      -2.57745838
H       -1.11810327      -0.74538416      -2.59307885
H       -0.22613405       0.22951329      -0.56147152
H       -1.43558240      -0.29155391      -2.70551062
H       -0.61950934      -0.43777069      -1.26678991
H       -0.99749207      -0.01781246       0.24086563
H       -1.19930017       0.37641609       0.21391359
H       -0.84285688       0.11169010       0.40368378
H       -0.91535479       0.45757151      -0.72500306
H       -0.84808749       0.65875143      -0.32881176
H       -0.64084566       0.47791821      -0.31414604
H        0.10823867       1.97389913       0.50292337
H       -0.78857082      -0.70725960      -1.26806402
