21
Properties=species:S:1:pos:R:3 pbc="F F F"
H        0.00000000       0.00000000       0.00000000
H        0.15274149      -0.33235219      -0.95892441
H        0.44709241       0.77460212      -0.38491675
H       -0.47574139       0.37226537      -0.43676484
H        0.86194801       0.01598554      -0.32423437
H        0.13542159       0.19434136      -0.44033217
H        1.04459500       0.85315567      -0.18302043
H        0.56806988       0.40888175       0.46804202
H       -0.11000529       1.20399642      -0.08673412
H       -0.11000529       0.87164426       0.88427877
H        0.16154958       0.37635413      -1.46073389
H       -0.72373462       1.30313385       0.18393815
H        0.14278084       1.19001496      -0.92625773
H        0.21355921       0.96478498      -0.56414545
H        0.86945742       0.41881293      -1.05752647
H        0.69819546       0.18159555      -0.60785395
H       -0.76967800       0.70541644      -2.01300573
H       -0.76967800       0.70541644      -2.01300573
H       -0.76967800       0.70541644      -2.01300573
H       -0.76967800       0.70541644      -2.01300573
H       -0.76967800       0.70541644      -2.01300573
