21
Properties=species:S:1:pos:R:3 pbc="F F F"
H        0.00000000       0.00000000       0.00000000
H       -0.41358426      -0.01689900      -0.88131911
H        0.77326828       0.49504808      -0.45859277
H        0.23028463       1.35269046      -0.30712587
H       -0.52457482       0.87668937      -0.09777974
H       -0.73880178       1.43708372      -0.34967390
H       -0.27304763      -0.07897592       0.17927933
H        0.70176989       0.76949966      -0.92813396
H       -0.67802906      -0.14560787      -1.28567410
H        0.03256232       0.21382698      -0.10303056
H       -1.54599214       0.73316604       0.48399496
H       -1.94328690       0.00135481       0.98864359
H       -2.29021263       0.31666332       1.84203911
H       -1.26848280       0.26324743       1.76117611
H       -1.09181666       0.34844530       0.66835058
H        0.79366904      -0.15790725      -0.49825627
H        0.04391450      -0.50730312      -1.19101739
H       -0.51604754       0.87314749       1.86079597
H       -1.96547842       1.21134341       2.22599125
H       -2.22088790       1.04147530       0.91643220
H       -0.73783797       1.01490569       1.71917915
