21
Properties=species:S:1:pos:R:3 pbc="F F F"
H        0.00000000       0.00000000       0.00000000
H        0.88791460       0.34709048      -0.19798161
H        0.56076276      -0.09268597       0.60677254
H        0.56076276       0.72378647       1.22862196
H        0.11868030       0.96180505      -0.48734033
H        1.07735491      -0.02362204       0.75129920
H        1.22355211       1.24088120      -0.00681047
H       -0.07172049      -0.08895500       1.01993489
H        0.78540260       1.82407200       0.63815027
H        0.56456900       1.51021910       1.01177680
H       -0.02419963       1.48950219       0.31837791
H       -0.14108726       1.46078479       0.30739290
H        0.65008318       1.44633436       0.50524771
H       -0.44890171       1.73050356       0.66892672
H       -0.48913091       1.73050356       0.64829528
H        1.06088614       1.52402782       0.91048366
H        1.03355730       1.25047255       0.51204562
H       -0.23126775       1.11102080       0.96202254
H        0.17185658       0.52140659       0.46805802
H        0.18455189       0.54388958       0.45250195
H        1.61355948       0.39776713       0.44926822
