21
Properties=species:S:1:pos:R:3 pbc="F F F"
H        0.00000000       0.00000000       0.00000000
H       -0.07115869       0.77136850       0.67323917
H        0.24634762       0.85576171      -0.24334610
H       -0.79712903       1.32758975       0.20750445
H       -0.12105258       1.71347213       0.26916605
H       -0.33966291       1.59546399      -0.67229265
H       -1.06384671       1.38100564      -0.78210777
H       -0.97132200       0.30782041       0.50545049
H       -0.59600925      -0.10154155      -0.29431450
H       -0.21802808       0.47730750      -1.01093221
H       -0.14451057       1.46539891      -1.09155846
H       -0.46757913       1.56199133      -0.62807065
H       -0.50664687       1.48010981      -1.16151881
H       -0.53274685       0.86454177      -0.23676193
H       -0.51901418       1.03118753      -0.49311298
H       -0.30852163       1.40640521      -0.73407614
H       -0.11238284      -0.55223316      -1.31591153
H       -0.11238284      -0.55223316      -1.31591153
H       -0.12315100      -0.55223316      -1.31943130
H       -0.82038647       1.27727330      -0.98409480
H       -0.09165289      -0.59249455      -0.95026815
