21
Properties=species:S:1:pos:R:3 pbc="F F F"
H        0.00000000       0.00000000       0.00000000
H        0.59380746      -0.49897972      -0.58861941
H       -0.09384471       0.02697185      -1.13983023
H       -0.34068626      -0.39891118      -0.88211489
H        0.86178029       0.05724159       0.23121732
H        0.57728809       0.79834032      -1.05097461
H       -0.01632649       0.37255010       0.50973147
H       -0.60777360       0.35473764      -0.32883692
H        0.99181175       0.95800924      -0.12577200
H       -0.58930117       0.79191828      -0.30264634
H        1.19840860       0.94982111      -0.31658792
H        1.54412866       1.47583377      -0.12565202
H        0.86565292       0.62535048      -0.43681079
H        1.36161685       1.08298755       0.19554234
H        1.37024331       0.98013657       0.20925236
H        0.18690121      -0.71412694       0.17780527
H        0.18544251      -0.71412694       0.20152251
H        0.83255488       1.18842101       0.23827441
H        1.20603848       1.12460685       0.38184395
H        0.96893179      -1.00705504       0.09008467
H        0.97381878      -1.00705504       0.09393203
