21
Properties=species:S:1:pos:R:3 pbc="F F F"
H        0.00000000       0.00000000       0.00000000
H       -0.53245163       0.67024595      -0.56620628
H       -0.85256046      -0.02657080      -1.24833584
H       -0.62950802      -0.28409141      -0.39922959
H        0.41775167       0.68714494      -0.77807665
H        0.70600736      -0.20664585      -0.52096272
H        0.79432064      -0.40140444      -1.52475238
H        0.99620759       0.39299458      -0.90709901
H        0.73919535      -0.49504808      -0.51170456
H       -0.11460876      -0.58234960      -1.55590391
H        0.10005602       1.55198932      -1.09299648
H        0.17585462      -0.78307116      -0.17457148
H        0.90221989      -0.70673651      -1.49336374
H        0.54291070       1.28414798      -0.33110511
H       -0.25642049       2.67937422      -2.01599598
H        0.08548522       2.89721274      -2.90126872
H       -0.01700099      -0.61827540      -1.00511599
H       -0.51421368       2.36492825      -2.19381571
H        0.14386135       0.65243351      -1.33796239
H        1.26413131       1.72034681       0.90968955
H       -0.47851890      -0.22808039      -1.29968286
