21
Properties=species:S:1:pos:R:3 pbc="F F F"
H        0.00000000       0.00000000       0.00000000
H        0.93511528      -0.39891118      -0.14054634
H        1.10657406      -0.69736302       0.82633126
H        0.10280275      -0.86245930      -0.52225685
H        0.25630879      -1.16702402       0.75903857
H        0.68080008      -1.25314188       1.50300503
H       -0.66660869      -0.26419187       0.73427469
H       -0.68185449      -0.70396829      -0.13430184
H       -0.26457369      -1.43791282       1.36091685
H       -0.49856251      -0.77683020       0.68543184
H       -0.24429643      -1.27095437       1.94708049
H       -0.03851405      -0.30217963       0.42260948
H        1.14546227      -1.00881124       0.58872521
H       -0.00900167      -1.67612004       0.00073153
H        0.77158135      -1.40827870       0.40974125
H       -0.75627220      -1.45275068       3.34523320
H       -0.50144970      -1.55560160       3.39720058
H        0.44587341      -0.87091899       0.48089463
H        0.36280930      -0.45597714       1.37047076
H        0.13118877      -0.09087053       0.61734116
H       -0.16414320      -0.34434786       0.62334442
