21
Properties=species:S:1:pos:R:3 pbc="F F F"
H        0.00000000       0.00000000       0.00000000
H        0.88292891      -0.28314662      -0.29719594
H        0.88292891      -0.64899874       0.66169727
H        0.28177100      -0.84879911       0.38497549
H       -0.49537450      -0.29302031       0.57263380
H        0.64515871       0.03649545       1.31102300
H        0.95812547       0.76830667       0.75016189
H        1.29247499       0.71763003       1.66323543
H        1.45634723       0.67935169      -0.14269084
H        1.69607425       1.30082083       0.99610943
H        2.46712518       0.71763003       0.88022172
H        1.34362280      -0.02630347       0.34022608
H       -0.01173264      -0.34643620       1.47627163
H        2.16502523       0.76830667       1.80446649
H        2.14658642      -0.20080060       0.92265993
H        2.22763801      -0.21146768       0.71443784
H        1.00227475      -0.22204930       1.57445836
H        0.37860042      -0.53349060       1.30108988
H        2.22237515      -0.76200199       0.85217875
H       -0.05285500       0.69681674       0.75164932
H        1.57554293       0.54121917       0.23940295
