21
Properties=species:S:1:pos:R:3 pbc="F F F"
H        0.00000000       0.00000000       0.00000000
H        0.80713278      -0.08439321       0.53802919
H        0.79053730      -0.48330438      -0.40744340
H       -0.13969150       0.64286757       0.78773820
H        0.24959919       0.23350561       1.58079338
H        1.54580235      -0.17334822       1.24497902
H        0.91471434      -0.48865673       0.57388335
H       -0.70745432       0.25040460       1.40240049
H       -0.11357012      -0.96046287      -0.11257783
H       -0.08201928      -1.45551097       0.78589630
H       -0.55456901      -0.68824071       1.61128330
H        0.63324988      -0.59822541       1.25049567
H        0.04056431      -1.68512452      -0.20686483
H       -0.02165055      -1.21419227       0.90935963
H       -0.62407839       1.95047700       0.23499328
H       -0.20067754      -2.62568569      -0.67726302
H        0.04119863      -1.89387441      -0.08227628
H        1.93195868      -0.07070784       0.13021326
H       -0.86571980      -1.42079163       0.88280433
H        0.54994297       0.15367419       0.71375328
H       -0.10435451      -3.74599218       0.23406059
