21
Properties=species:S:1:pos:R:3 pbc="F F F"
H        0.00000000       0.00000000       0.00000000
H       -0.50007260       0.47200781      -0.61275923
H       -0.79644066       0.40936196       0.38231659
H       -0.91283858       1.18108773      -0.08845890
H        0.49244964       0.79439902      -0.42396629
H       -0.09443468       1.64463580      -0.49914381
H        0.82035160       1.18108773      -0.53930771
H       -0.77153808       1.31601882       0.73645496
H       -0.03759402       0.68014443       0.80752307
H       -0.16148806       1.70682442      -0.17454693
H        0.52354014       1.05032206       0.48973584
H        0.73245370       0.69681674       0.17686665
H        0.19314557       1.43402696       0.79578799
H       -0.40631086       2.02509880       0.17799664
H        0.14158124       1.20381904      -0.64093119
H        0.17329937       1.18600762      -0.42129254
H       -0.37800568       0.44835603      -0.24781999
H       -0.05053991       1.03779507      -0.37871066
H        0.87002844       0.85556346       1.43595934
H        0.87214386       0.89065313       1.44173646
H       -0.12530214       1.59709239      -0.32311666
