21
Properties=species:S:1:pos:R:3 pbc="F F F"
H        0.00000000       0.00000000       0.00000000
H        0.14728610      -1.02954066      -0.28719354
H        0.60429806       0.49504808       0.66563886
H       -0.29145664      -0.15285128      -0.59091121
H        0.36043310      -0.49433473       0.54326457
H        0.46566775       1.02099967      -0.20469469
H       -0.18213627       0.62208849      -0.89356607
H        0.08425933       0.68864751      -1.09766364
H        0.46566775       1.02099967      -0.20469469
H       -0.39875504       0.99496609      -1.43029475
H        0.05690001      -0.47787374      -1.01919889
H        0.68554866       0.14747465      -0.77004397
H        0.19752583       0.48387456      -0.61561358
H       -0.51927227       0.19796139      -1.63189745
H       -0.37420630       0.17056668      -1.51114416
H        0.53937894      -1.16336799      -0.52384794
H        0.53620732      -1.20968497      -0.59167361
H        0.56222284      -0.06073073      -0.13273484
H        0.67174292      -1.73135114      -0.47078061
H        0.69061059      -1.73135114      -0.49269599
H       -0.25834817       0.47997600       0.56679869
