21
Properties=species:S:1:pos:R:3 pbc="F F F"
H        0.00000000       0.00000000       0.00000000
H        0.47219095      -0.55577880       0.64514065
H        0.29058167      -0.11600235       1.49465561
H       -0.61355543      -0.63587439       0.40899184
H       -0.02282095      -0.58245850      -0.42856625
H       -0.52069575      -1.04523635       1.28754795
H        1.13878036       0.10183614       1.06901932
H       -0.16959444      -0.22651243       1.17278659
H        0.18826579       0.28238589      -0.03417119
H        0.82962400      -0.47720802      -0.55668736
H        0.41591060      -0.99455971       1.54881692
H        0.36360753      -1.39232683       1.50108194
H        1.11240911       0.31740212      -0.07018125
H        0.18187183      -0.10817719       0.60106480
H        1.33027363       0.27645266      -0.19695634
H        0.82128513      -0.16600522       0.24695140
H        0.71610737       0.73425877       0.65003932
H        0.63873178       1.09081089       1.19749618
H        0.91853040       0.85887313       0.70495892
H       -0.13080367      -1.38277662       0.58883065
H        0.10905337      -0.39603648       0.76219761
