21
Properties=species:S:1:pos:R:3 pbc="F F F"
H        0.00000000       0.00000000       0.00000000
H       -0.46163812      -0.66108263       0.54582143
H        0.96371472      -0.08439321      -0.11042023
H        0.35039830      -0.84879911      -0.32376233
H        0.50663072      -1.74347925       0.15421563
H        1.33646750      -1.24843121      -0.19164884
H        0.33286920      -1.18703413       0.92720973
H        1.78572154      -0.43195879       0.23831338
H       -0.31735936      -1.49864459       1.12114525
H        0.61557519      -1.71648312       0.94724786
H       -0.12563790      -0.84547770       0.34310406
H        1.73894560      -0.77877021       0.56034237
H        1.12267208      -1.53243089       0.57657027
H        1.33719456      -0.34858507       0.80829585
H       -0.38271537      -1.94368052       0.37829489
H        0.62936532      -0.13506985       0.80265331
H        0.72688055      -1.11995363       1.10126579
H        0.71521658      -0.43195879      -0.21892504
H       -0.62048554      -1.25818634       1.02762055
H       -0.29851881      -1.05577278       0.60822695
H       -0.13483396      -1.15690804      -0.03143868
