21
Properties=species:S:1:pos:R:3 pbc="F F F"
H        0.00000000       0.00000000       0.00000000
H        0.50421435      -0.31530851      -0.77097952
H        0.87250006      -1.19582248      -0.26780152
H        0.79061043       0.01689900       0.56807607
H       -0.08316064      -1.38059342      -0.24263680
H        0.73366004       0.81129801      -0.07923430
H       -0.31937122       0.30055451      -0.44456434
H        0.06422365      -0.39246297       0.06523818
H        0.03849030      -1.57427669       0.06274509
H        0.39308071       0.21616131      -1.10285830
H       -0.42524886      -0.22361514      -0.81132054
H        0.04428077      -0.35871965      -1.52926469
H        0.75092793      -1.63559890       0.59236002
H        0.73656702      -1.10790169      -0.22580272
H        0.91493022      -0.95810544      -0.73583651
H        0.91493022      -0.95810544      -0.73583651
H        1.34839439       0.67798162       0.12096569
H        1.32879448      -0.22019626      -0.14078319
H        0.69140619      -0.79197580       0.53075898
H        0.69368643      -0.45510882      -0.21687758
H        1.52338076      -0.53476793       0.48411691
