21
Properties=species:S:1:pos:R:3 pbc="F F F"
H        0.00000000       0.00000000       0.00000000
H        0.42017129      -0.49897972       0.72286665
H        0.23173292      -0.77460212      -0.54254252
H        0.57281977      -1.27377510       0.15231282
H        0.14576828       0.48033944       0.58516800
H        0.78400385      -1.63224459      -0.42953670
H        0.83851004      -0.47937608       0.74532443
H        1.04120135       0.85879362       0.64024174
H        0.75961804      -0.01689900      -0.60889715
H        1.60782480       0.23374458      -0.20173141
H        1.91278052       0.42730403       0.31238449
H        1.13833094      -1.38160098       0.44206583
H        1.64784026       0.61207497       1.23093081
H        1.54862869      -1.51423645       0.16163492
H        1.95389783      -0.36724418       1.20670843
H        1.00804317       0.88970137       0.39290339
H        1.84395814      -0.74569839       0.31634521
H        2.02396536      -0.92302299       0.41030318
H        1.13632584      -0.24651255       0.31775951
H        1.03356779       0.27774018       0.13684078
H        1.39237392       1.29327834       0.39780518
