21
Properties=species:S:1:pos:R:3 pbc="F F F"
H        0.00000000       0.00000000       0.00000000
H        0.07742673      -0.40936196      -0.88005048
H        0.69152933       0.67583513      -0.47870800
H        0.42138812       0.86484438       0.15012364
H        0.67898357       0.01475251      -1.19346201
H        0.00406748      -0.67074168      -1.34395075
H       -0.63931185      -0.08439321      -0.72953343
H       -0.75318420       0.58582085      -0.37795672
H        0.53925711       1.01632524      -0.80445552
H       -0.47950917       1.08480060      -1.16800869
H       -0.46054670       0.48639017      -0.01426731
H        0.47069412       1.06790161      -1.37987900
H       -0.10291940       0.37187839      -0.72274482
H       -0.23244566      -1.86404765      -2.22149420
H       -0.09636761      -1.81337106      -1.25869846
H       -0.01912884      -1.28741956      -2.13661242
H       -0.35454947      -2.09651756      -0.36358339
H       -0.30552077      -1.81337094      -1.29389787
H       -0.28266656      -2.10035849      -0.90386009
H       -0.24855773      -2.01095152      -0.84283352
H       -0.71899337       0.57380325      -0.57890636
