21
Properties=species:S:1:pos:R:3 pbc="F F F"
H        0.00000000       0.00000000       0.00000000
H        0.58115071      -0.52769721      -0.57607329
H        0.82003796      -1.35942817      -0.12973562
H        1.36797929      -0.92660838      -0.05157876
H        0.85029685      -0.15200627      -0.33452296
H       -0.09562105      -0.34709048       0.90467983
H        1.39630771      -1.07628155       0.60224938
H        0.07111490      -0.15966894       1.01132202
H        1.33840525      -0.34078753       0.79059887
H        0.47963738       0.06857443       0.99796665
H       -0.03692222      -1.01233768       0.17556465
H        0.42509055      -0.26095611       0.87903553
H        0.49669266      -1.42337203       0.46703863
H        1.13339007      -0.89742047       1.07639503
H       -0.03252065      -0.60689962       0.79358113
H        1.21642768      -0.40454245       0.41135150
H       -0.04611292      -0.72353184       1.31315470
H        0.58689100       0.63242263       0.09877085
H        0.11805430      -0.26920146       0.46125326
H        0.23460090       0.07664382       0.81644940
H        0.79376966      -0.27892262       0.46934849
