21
Properties=species:S:1:pos:R:3 pbc="F F F"
H        0.00000000       0.00000000       0.00000000
H        0.75986940       0.40936196      -0.45064643
H        0.32045242       0.84085155       0.37036112
H        0.76971161       0.28507274       1.03167570
H        1.23648572      -0.43943715      -0.47157237
H        0.31298104      -0.53139967       0.60966396
H        1.01786768      -0.51973575      -0.31546053
H        1.09657216      -0.40701276       1.26069140
H        0.19319972      -0.81647241       0.59107578
H       -0.58435881      -0.72254789      -0.43562961
H        0.55118650      -1.35261846       0.96260571
H        0.19262820      -0.61514050       0.66145706
H        1.95788312       0.23922563       1.19252443
H        1.95788312       0.23922563       1.19252443
H        1.97972262       0.20885026       1.19079602
H        2.45625257       0.22362596       1.20099437
H        2.43356752       0.27048069       1.20199037
H       -0.38435072      -1.64097857      -0.18157679
H       -0.09024733      -1.55427885      -0.54580349
H        0.81400019       1.10956514       0.22706759
H        0.24585617      -0.70656234      -0.03710049
