21
Properties=species:S:1:pos:R:3 pbc="F F F"
H        0.00000000       0.00000000       0.00000000
H        0.85755634      -0.19475858       0.52914101
H       -0.43975678      -0.86484438      -0.08196982
H        0.63324106       0.06943329      -0.43688655
H       -0.04022586      -0.62738347      -0.77484018
H        0.73846370      -1.12385631       0.79495168
H        0.11242804      -1.63944650      -0.28968221
H        0.11930701      -1.65945458      -0.14602607
H        0.82136792      -1.12243152      -1.03156435
H        1.58623683      -1.17584741      -0.34932810
H        1.46724248      -1.50819957      -1.31302214
H        0.96511632      -1.32732821       0.38505852
H        0.96511632      -1.82451177       1.68816984
H        0.97119361      -1.14182043       0.72464365
H        0.75268304      -0.95242077      -1.67159653
H        1.62824976      -0.62196738       0.24813682
H        0.78195280      -0.70024580      -0.92043257
H        0.66323477       0.07711989      -1.36147988
H        0.77949017       0.12159771      -1.77105999
H        2.70276427      -0.52845061       0.27643129
H        1.74097252      -0.67993140       0.26799113
