21
Properties=species:S:1:pos:R:3 pbc="F F F"
H        0.00000000       0.00000000       0.00000000
H        0.75529516      -0.29845181       0.62751859
H        0.90788049      -0.21405861      -0.33042526
H        0.00321096      -0.99526858       0.67377549
H        0.19284511      -0.23095761      -0.99110651
H       -0.74726623      -0.24877007      -0.57977057
H        0.89291173      -0.68371964      -1.18321788
H       -0.52945220      -1.19583201      -0.51901072
H       -0.91394973      -0.97745615       0.21353343
H        1.12910688      -1.01607180      -0.24136984
H        0.44477403      -1.41553092      -0.72312450
H        0.02839345      -1.08418894       0.49202552
H       -0.06127715      -0.86849058      -1.12453055
H        0.26341587      -1.44756138       0.10173315
H        0.22797698      -1.43292725      -0.05165148
H        0.46005929      -0.95142257       0.81471682
H       -0.55271924      -1.40462983      -1.84457040
H       -0.59922469      -1.40462983      -1.84293723
H       -0.59922469      -1.40462983      -1.84293723
H       -0.59956402      -1.35849178      -1.84937620
H       -0.55283237      -1.35849178      -1.85101724
