21
Properties=species:S:1:pos:R:3 pbc="F F F"
H        0.00000000       0.00000000       0.00000000
H        0.52815789      -0.26419187       0.83939010
H       -0.60793787       0.75366068       0.10231305
H        0.30475658       0.47051406       0.28906882
H       -0.47881392      -0.49917299       0.60819519
H       -1.08571315       1.13211489       0.86163133
H       -0.21864134       1.57189131       0.91496074
H       -0.75136369       1.08143830       1.77470481
H       -1.03793705       0.95717674       0.85011911
H       -1.55563688       0.89439785       0.85625958
H       -1.55563688       0.84919977       1.72350359
H       -0.53975493       2.92849350       0.95747507
H       -0.53806508       2.92849350       0.96871823
H       -0.53975493       2.92849350       0.95747507
H       -0.67633796       2.94356561       0.09999448
H       -0.82947648       2.96046472      -0.86142313
H       -0.82947648       2.96046472      -0.86142313
H       -0.82947648       2.96046472      -0.86142313
H       -0.82947648       2.96046472      -0.86142313
H       -0.67633796       2.91342139       0.09999448
H        0.33892229       0.48741305       1.26200664
