21
Properties=species:S:1:pos:R:3 pbc="F F F"
H        0.00000000       0.00000000       0.00000000
H        0.05739931      -0.52769721       0.81627315
H        0.68370187       0.74740851       0.16509448
H        0.03243524       1.01761651       0.12933823
H       -0.48476332       0.51863682       0.78629017
H        0.51858914       0.34849733       1.09618604
H        0.50028253      -0.00174564       1.57821369
H       -0.39080372      -0.47975984       0.01305842
H       -0.23414403       0.34385347       1.65518522
H       -0.55210620       0.35252842       0.37308002
H       -0.02920961      -0.23837124       1.00053430
H        0.87089342       0.82285792       0.68824863
H        0.62595344      -0.37457907       0.02989149
H        0.64275944       0.41219348       0.50847733
H        0.06786591       1.52870798       1.13829851
H        0.99304289       0.57102668       0.53143507
H        0.96206510       1.10200977      -0.14765829
H        0.92996448       1.06829309      -0.24473953
H        1.16057539       0.23856002      -0.03136427
H        1.36805773       1.14762771      -0.54089308
H        1.36321998       1.19941282      -0.53846550
