21
Properties=species:S:1:pos:R:3 pbc="F F F"
H        0.00000000       0.00000000       0.00000000
H        0.54069358       0.79439902       0.36042264
H       -0.02564919       1.16025114       1.13420033
H       -0.58676571       1.17715013       0.33863539
H        0.11944482      -0.04316294      -0.05714560
H       -0.16845626      -0.39890695      -0.20802036
H       -0.93113339       0.81316066       1.22187877
H       -0.59044027       0.40659046       1.38131881
H       -0.14807039      -0.39890695      -0.23255727
H       -0.86145276       0.31950772      -0.15362522
H       -0.52961004       0.47917664      -1.11159718
H       -0.52961004       0.47917664      -1.11159718
H        0.25411648       0.46319109      -0.62801158
H       -0.96473092       1.68867242      -1.77692795
H       -0.92980057       1.63061213      -1.89192986
H       -0.36202672       0.37292361      -1.04863608
H        0.43546200       0.51738358       0.48042542
H        0.04201657       1.05023384      -0.16538596
H        0.07019800       0.93991917      -0.08282939
H       -0.02855551       1.82001770       0.91173804
H       -0.86145276      -0.04895362       0.57421315
