21
Properties=species:S:1:pos:R:3 pbc="F F F"
H        0.00000000       0.00000000       0.00000000
H       -0.81573808      -0.52769721      -0.06456009
H       -0.40593278       0.31530851       0.82695836
H        0.07037345       0.89468008       0.49791473
H       -0.87786931       1.26053214       0.35539532
H       -1.41886616       0.51312363       0.80486929
H       -0.93000257      -0.36356574       1.01876652
H       -0.76227552       1.17782664       0.08008164
H       -1.24432576       0.16603315      -0.08794916
H       -1.81921649      -0.21394017       0.17775109
H        0.04940981      -0.29060194       0.14434841
H       -1.03702998      -0.60117447      -0.11647978
H       -0.39290035      -0.88930243       0.48635691
H       -0.54956710       0.88858104       0.13241148
H       -1.12535286       0.47066483       0.04489583
H       -0.94277608      -0.73202705       0.29104024
H       -0.57097751       0.07334718       0.61581242
H       -0.89759713       0.04111582       0.21003735
H       -1.02369118      -0.38708961       0.24458033
H       -1.63624310      -0.52699685       0.61772215
H       -1.39471865      -0.36575258       0.53040361
