21
Properties=species:S:1:pos:R:3 pbc="F F F"
H        0.00000000       0.00000000       0.00000000
H       -0.04850490       0.68549418       0.68978679
H       -0.17674640       0.31530851      -0.90410298
H       -0.24400842       0.68116057       0.05242825
H       -0.40251559       0.87591916      -0.94269407
H        0.18095510      -0.64286757      -0.77929485
H       -0.30821854       1.25437331      -0.05053860
H        0.39122093      -0.12816662       0.38538861
H        0.65751612       0.67330575      -1.05960810
H       -0.34055388       0.54891884      -0.85538268
H       -0.98563528       2.04011059       0.24585801
H       -0.50042742       1.22363818      -0.14307648
H        0.76622885      -0.69192898      -1.52778649
H        0.74973154      -0.69192898      -1.53131318
H        0.74973154      -0.69192898      -1.53131318
H        0.74058640      -0.70778549      -1.48453367
H        0.73134160      -0.72197783      -1.43724406
H        0.71804321      -0.72197783      -1.43960226
H       -0.59286302       1.10208106      -0.66709298
H       -0.60186166       1.11822653      -0.75265157
H        0.02146029       1.38238573      -0.85786664
