21
Properties=species:S:1:pos:R:3 pbc="F F F"
H        0.00000000       0.00000000       0.00000000
H       -0.77018702      -0.01689900       0.59547228
H       -0.40301839      -0.71371573      -0.06252289
H       -1.06718886      -0.91157907       1.00125718
H       -0.82140887      -1.41055882       0.20208740
H       -1.37869930      -1.67475069       1.02242494
H       -0.13233507       0.39891118       0.93631262
H       -0.27260715      -0.66315031      -0.23782292
H       -1.27924454      -0.03562491       1.54659629
H       -0.86852276      -1.06485057       1.58438826
H       -0.71316743      -1.35944223       1.65937757
H       -1.65047932      -1.48041034       1.25518262
H       -0.88417912      -1.09236634      -0.52436924
H       -0.81941682      -0.56332213       2.22346783
H       -1.53515291      -1.14025450       2.16682220
H        0.28194511      -0.55765939       0.25296116
H       -0.98039174      -0.58369297      -0.55687088
H        0.22566473      -0.96981955       0.24707812
H        1.25053048      -0.15428397       0.67675555
H       -0.80701923      -0.20112109      -0.52277023
H       -1.77153015      -0.63163030      -1.02606153
