21
Properties=species:S:1:pos:R:3 pbc="F F F"
H        0.00000000       0.00000000       0.00000000
H       -0.01035373      -0.77460212      -0.58986890
H       -0.23055434      -0.75770313      -1.53817630
H       -0.18013656      -0.72392547       0.36755818
H       -1.10446501      -0.26265505      -1.32715201
H       -0.28338483       1.09085810       0.10095856
H       -0.21143711       1.10909474       0.07532649
H       -0.27120319       1.09085810       0.13018608
H       -0.25746486       1.10063946       0.05268254
H       -1.07414031      -0.78281993       1.05875969
H       -1.02345347      -0.66503102       1.11976767
H       -0.22835591       1.10063946       0.13006604
H       -1.05038095      -0.70428610       1.09057951
H       -1.07414031      -0.66503102       1.05875969
H       -0.52261764       0.11898625      -1.98476183
H       -0.48905188       1.24539590      -1.88207066
H       -0.22134161       1.10909474       0.03725074
H       -1.89345062       0.14072037      -0.62340426
H       -0.96188098      -0.14242625      -0.63157934
H       -1.40030575       1.43016684      -1.59304309
H        0.37793106       1.16100264      -2.31713319
