21
Properties=species:S:1:pos:R:3 pbc="F F F"
H        0.00000000       0.00000000       0.00000000
H        0.36038706      -0.22961354      -0.93312520
H       -0.83842331      -0.55622131       0.20245510
H       -0.98333186      -0.87152982      -0.70729381
H       -1.17378855       0.08280754      -0.67524087
H       -1.29938972       0.02939163      -1.69244051
H        0.69261789       0.66417724      -1.13015723
H       -0.21506633       0.83173102      -0.45829129
H       -1.39225745      -0.99223566      -1.72370005
H       -0.66095251       0.19585663      -1.04558182
H        0.24951109       0.99652946      -1.99417245
H       -1.12075698      -1.12094450      -1.32404828
H       -0.42978302       1.69334626      -1.66808987
H       -0.35886940      -0.60806775      -1.46931863
H       -0.49753121       0.38181490      -2.33677673
H       -0.93043268       0.93968558      -1.30835891
H       -0.18662459       0.99323952      -0.49839664
H       -0.91856563       0.36724454      -0.44658941
H       -0.47105235       0.72673994      -1.08119988
H       -0.61979365      -0.98386270      -1.26758432
H        0.01283360       0.70939231      -1.06335568
