21
Properties=species:S:1:pos:R:3 pbc="F F F"
H        0.00000000       0.00000000       0.00000000
H        0.14728610      -1.02954066      -0.28719354
H        0.09445190       0.96807545       0.32746395
H       -0.69364434      -0.77889705      -0.70918238
H       -1.48815155      -0.25294548      -0.32779393
H       -0.33095583       1.63832140      -0.32301471
H       -0.60753095       1.88896501      -1.22231722
H       -0.78290498       0.78067899      -0.65993518
H       -2.07183695       0.36176908      -0.90637958
H       -1.78600407       0.31109244      -1.83578396
H        0.69009393      -1.29373252      -1.11718524
H       -0.23928350      -1.38268757      -1.54341114
H        1.39937878      -0.70791167      -1.57221580
H       -1.59638286       1.30663061      -0.99898171
H       -0.83966541       0.29419345      -1.60727024
H        1.28780186       0.25255120      -1.45766211
H       -0.53061289       0.87658536      -1.37229991
H       -1.88703418       1.04290366      -2.47006011
H        0.44012177       0.37693810      -0.89260441
H        1.52127910       1.22062659      -1.70594049
H        2.02703738       2.05235767      -1.72814596
