21
Properties=species:S:1:pos:R:3 pbc="F F F"
H        0.00000000       0.00000000       0.00000000
H       -0.33100656      -0.58582085      -0.77496612
H        0.14296728      -0.12227276      -1.55841732
H        0.95838290      -0.38646463      -2.12288523
H        1.78300571      -0.16862613      -1.65319979
H        0.44656619      -1.14204216      -0.40170693
H        0.80065745       0.40367880      -0.97178078
H        1.24435163      -1.05308712      -1.04119849
H        1.72250378       0.38759518      -0.79280382
H        1.99634171      -1.24784565      -0.37044972
H        0.32492384       0.63587439       0.66192830
H        0.58934700       0.84345526      -0.12916261
H        2.64835835      -1.33223891       0.34775150
H        1.37855422      -0.88544434      -1.40001857
H        2.47592306      -0.69492221      -1.16316962
H        2.73153019      -1.11440039      -0.59760010
H        1.01629066       0.38333821       1.12278867
H        1.50771379      -0.28690773       0.52062798
H        1.24548721      -0.48166633      -0.45232123
H        1.17321765       0.06510282       0.63979542
H        2.65177727      -1.82800090       0.28287941
