21
Properties=species:S:1:pos:R:3 pbc="F F F"
H        0.00000000       0.00000000       0.00000000
H        0.88292891      -0.28314662      -0.29719594
H        0.91506368      -0.74669468       0.61790752
H        0.79586375      -0.43977645       0.34822190
H       -1.09335470      -0.25316367       0.14475629
H       -1.95312500       0.12529054      -0.11142439
H       -1.74181449       0.56506699       0.73119378
H       -1.34213173       1.44491458       0.61210263
H       -1.59138894       0.47155020       1.79550302
H       -1.12188828       1.08145022       2.39186859
H       -1.12585688       2.02851200       2.16577363
H       -0.66814727       1.22707605      -0.05599332
H       -0.95147526      -0.09349473       1.14859891
H       -0.19574207       1.83375347       1.77811468
H       -0.92449808       0.27141076      -0.32859546
H       -0.12465179       0.40548497       1.02432871
H       -0.84164101      -0.29913259       0.63245147
H       -0.23809886       0.98793340       1.78006935
H       -0.61087847       2.18084383       0.96863902
H       -1.82959795       2.52749181       1.71429968
H       -0.72803211       2.36561489       0.01985258
