21
Properties=species:S:1:pos:R:3 pbc="F F F"
H        0.00000000       0.00000000       0.00000000
H        0.41703188       0.87984765      -0.00365971
H       -0.50583464      -0.64286757      -0.61981976
H       -0.41208988       0.08439321      -0.87813479
H       -0.83721775      -0.74094617      -1.69733393
H       -1.56561422      -1.00513804      -2.37036061
H       -0.26139843       0.03365594      -1.82572651
H       -0.51273865      -1.64754140      -1.01315176
H       -0.01890823       0.86203521      -0.93261760
H       -0.66127068      -0.93570477      -0.70514661
H        0.58652157       0.82369244      -1.06773078
H       -1.00529671      -0.05953228      -2.10139060
H       -1.44417822      -2.44023848      -2.22677994
H       -1.48872638      -2.44023848      -2.19874954
H        1.19700813       0.31260091      -1.87182188
H        1.79212570      -0.12717554      -2.50466681
H        0.43730694       0.89842176      -1.50714135
H       -1.48275113      -2.44023848      -2.20155358
H        1.25529146       0.06006473      -1.04297709
H       -1.35768640      -2.41293287      -2.10624814
H       -1.50472200      -2.44589472      -2.24631238
