21
Properties=species:S:1:pos:R:3 pbc="F F F"
H        0.00000000       0.00000000       0.00000000
H       -0.50007260       0.47200781      -0.61275923
H       -0.96819043       0.08439321       0.05954853
H       -0.69030762       1.14784288      -1.43201792
H       -1.77707589      -0.00456179       0.68494064
H       -1.91732788       1.00781786       0.77843165
H       -0.98194987       1.12582600       0.53511500
H       -1.68964553       1.37745643      -1.47589409
H       -1.92181146       0.62379575      -0.90479386
H       -0.73934257      -0.28230196       0.78542477
H       -0.20370930       1.70901680       0.58298081
H        0.84399253      -0.26419187       0.52077168
H       -0.06761894       0.74855393       0.66695315
H        1.01096356      -0.62831402       0.22154641
H       -0.96284795       1.48356283       1.15672469
H       -1.31182194       1.62070739       2.22437596
H       -1.48002422       2.30620146       2.89509678
H       -0.26443994       1.67686260       2.47728872
H        0.14792889       1.01069832      -0.68434042
H        0.47879589       1.12108374       2.77185845
H        0.10833752      -0.40668887       1.35048246
