21
Properties=species:S:1:pos:R:3 pbc="F F F"
H        0.00000000       0.00000000       0.00000000
H        0.79402828      -0.31375703       0.65969908
H        1.57512999      -0.46523783       1.22094285
H        0.04115164      -0.77730513       0.13852370
H        2.18868542      -1.10111225       1.62993467
H        2.87614870      -0.60213256       1.15404141
H        1.38834536      -0.44833884       0.26549172
H        2.96048951      -1.52953947       0.72261715
H        0.15385136      -1.65318108      -0.56901497
H        2.70017982      -1.29992592      -0.24321944
H        2.43258715      -2.23861933       1.13076639
H        0.28816915      -1.67751837      -0.50106162
H        2.55293345      -0.22367835       0.31716311
H        2.43258715      -1.97442746       2.12249541
H        1.72271585      -2.35662746       0.47485667
H        2.71818900      -1.31773841      -1.26922250
H        0.21957389      -1.67751837      -0.52348274
H        2.03216267      -1.55842280       1.40490353
H        2.01270461      -0.98461741       0.36998469
H        2.20467687      -3.65535212       0.31262749
H        2.16148400      -3.61694956       0.06944212
