21
Properties=species:S:1:pos:R:3 pbc="F F F"
H        0.00000000       0.00000000       0.00000000
H       -0.30729049       0.46966103      -0.79564559
H       -0.79177290       0.12257054      -0.02566773
H       -1.74387503       0.02905375       0.47321460
H       -2.69021368       0.01215475       0.70172817
H       -0.11359020       0.98075259      -1.78647172
H       -0.37433994       1.23139620      -0.88245392
H       -0.55028689       1.42615473       0.10973340
H        0.64797753       0.01507208       0.57797319
H        1.48338377      -0.37216219       0.59997141
H       -0.71669996       0.08794822       0.00213736
H       -2.63726783       0.81346846      -0.35226598
H       -2.63726783       0.81346846      -0.35226598
H       -2.63726783       0.81346846      -0.35226598
H       -2.63726783       0.81346846      -0.35226598
H       -2.63726783       0.81346846      -0.35226598
H       -2.63726783       0.81346846      -0.35226598
H       -2.63726783       0.81346846      -0.35226598
H       -2.63726783       0.81346846      -0.35226598
H       -2.63726783       0.81346846      -0.35226598
H       -2.63726783       0.81346846      -0.35226598
