21
Properties=species:S:1:pos:R:3 pbc="F F F"
H        0.00000000       0.00000000       0.00000000
H        0.85755634      -0.19475858       0.52914101
H       -0.61646348      -0.75366068      -0.00540974
H       -1.11047828      -0.59399176      -0.89072269
H       -1.05597854       0.22248065      -1.51017928
H        0.66140425      -0.90383852      -0.10866064
H       -0.16367128      -1.50732136      -0.42378241
H       -0.73960489      -1.38860190      -1.31393480
H       -0.16113591       0.71752870      -1.42353129
H        0.08581103      -0.13127041      -1.83172023
H        0.94336736      -0.32602900      -1.30257916
H        1.06897736      -1.34364557      -1.25782931
H        1.26040316      -1.80719364      -0.36239469
H       -0.10993971       0.37845421      -0.89036322
H        0.79830498       0.44225621      -0.48455369
H        1.12724066      -0.71906757      -0.94347620
H        1.62325311       0.15233190       0.03792039
H        1.17977154      -0.78957713      -0.46859714
H        0.65947849      -2.24701881      -1.21440077
H        0.75527942      -2.27304196      -1.70444667
H        0.93565595      -2.47937751       0.08129799
