21
Properties=species:S:1:pos:R:3 pbc="F F F"
H        0.00000000       0.00000000       0.00000000
H        0.02715597      -1.02162731       0.09414954
H        0.52644235       0.15148079      -0.80496770
H       -0.53495127      -1.25124085       0.92157739
H        0.87465411       0.03347269      -1.70656824
H       -1.39624214      -1.20056427       1.37287641
H       -0.82518774       0.28314662       0.43238178
H       -1.64867187      -1.11617100       0.43627727
H       -1.77466404      -0.30677348       1.45030928
H        0.75835693      -0.18436581      -2.64841866
H       -2.00648785      -0.25335759       0.45194638
H       -0.12084413      -1.27227092      -0.83500850
H        0.26628238      -0.62760991      -1.33118236
H       -1.12537014      -1.46702945      -0.91450983
H       -1.42897594      -0.88120860      -1.70061493
H       -1.17668235      -1.33090484      -0.56949914
H       -0.81725186      -0.66391528       0.65837234
H       -0.15394402      -0.61585540      -2.46174335
H       -1.87750721      -0.12022880       0.53427833
H       -0.99074185      -1.66562331      -2.83530426
H       -0.98119760      -1.62293518      -2.86001635
