21
Properties=species:S:1:pos:R:3 pbc="F F F"
H        0.00000000       0.00000000       0.00000000
H       -0.58002573       0.67024595       0.51736289
H       -0.39613175       1.48390675       1.01955819
H       -1.18577456       0.20058492      -0.08309335
H       -0.83983213       0.11800810       0.47834814
H        0.53146911      -0.33235219      -0.81265402
H       -0.59505367      -0.27345771      -0.90181059
H       -1.44394922      -0.79940927      -0.66500866
H       -0.39613175       1.11132848       2.41815042
H       -0.66316581       0.05889449       0.06681049
H       -0.56536967       0.77510399       0.15386301
H       -0.51683772       0.92768544       1.87359095
H       -0.49237803       1.02035868       1.93015337
H       -0.23383918       2.42599034       0.32063472
H       -0.23383918       2.42599034       0.32063472
H       -0.23383918       2.42599034       0.32063472
H       -0.23383918       2.42599034       0.32063472
H       -0.23383918       2.42599034       0.32063472
H       -0.23383918       2.42599034       0.32063472
H       -0.23383918       2.42599034       0.32063472
H       -0.23383918       2.42599034       0.32063472
