21
Properties=species:S:1:pos:R:3 pbc="F F F"
H        0.00000000       0.00000000       0.00000000
H        0.46564069       0.84879911      -0.10382564
H        0.00000000       0.18477097       0.95599192
H        0.11620258      -0.90665692      -0.33545655
H        1.05651796       1.40502048      -0.73216134
H        0.74490213       0.65404052       0.86437166
H       -0.02644390      -0.51204574       1.70903313
H        0.88130361      -1.40170503       0.13663641
H        1.08482754      -1.41860402       1.08866239
H        1.47457194       1.49397552       0.20092058
H        0.16323048      -1.23459363       1.00527740
H        1.25405204      -0.52185738      -0.05041324
H        0.67323542      -0.05617362       0.16139713
H        2.01218843       0.57232767       0.04073004
H        0.70292521       1.74449539      -0.63352561
H        1.32345593      -0.51194710       1.35151339
H        1.20422947       0.23997548       0.57930994
H        1.04065657      -0.69192308       0.28077805
H        1.95487320      -0.35113817      -0.61072725
H        1.34042466      -0.05984968       0.29374760
H        2.81254315       0.80703676      -0.87257290
