21
Properties=species:S:1:pos:R:3 pbc="F F F"
H        0.00000000       0.00000000       0.00000000
H       -0.02481474      -0.91159266      -0.47085762
H        0.54311693       0.11800810       0.79947424
H       -0.74967092      -1.49478340      -0.18357229
H        0.32864165      -1.65900111       0.13723207
H       -0.28922516       0.17142400       1.39753556
H        0.82300758      -0.71955389       1.32242262
H       -0.89297092       0.69737554       0.75551546
H       -0.16991198      -2.05100465       0.45503658
H        0.96887660      -1.57916975       0.79454786
H       -1.66042018      -1.07541525       0.21491656
H       -1.68910992       0.14115423       0.42369553
H       -1.31023097      -0.13331157       0.00723413
H        0.28998202      -1.92626023       1.40009832
H       -0.01117170      -0.89559913       2.06648159
H       -1.45934415      -0.92393446       1.15549242
H       -0.36605591       0.14159673       0.15424073
H       -0.57201028      -0.62318611       1.88404167
H       -0.55550683      -1.13698769       1.16672707
H        1.01104665      -0.65421051       2.31331825
H       -2.09068179      -0.67531818       0.89849722
