21
Properties=species:S:1:pos:R:3 pbc="F F F"
H        0.00000000       0.00000000       0.00000000
H       -0.47549847       0.19475858       0.88842231
H        0.79382461       0.58582085       0.28280777
H        0.50002849       0.01781246      -0.89609045
H        0.20350710       0.69373828       1.37630713
H        1.63142443       0.98473203       0.72169316
H        1.46083784       0.50513226      -0.83699572
H        0.45639977       1.33948159      -0.23313886
H       -0.25017342       0.81353003      -0.75987715
H        1.77640224       1.99711168       0.63571292
H        1.39715290       1.47436857      -0.90471786
H        0.38971806       1.59875548      -1.05613375
H        0.80353439       0.47589979       0.64106941
H        0.70265555       1.02373552      -0.87646997
H        0.32963538       1.71626401       0.90832877
H       -0.73362315       1.07063448       0.22007817
H        0.26290274       1.71626401       0.89528292
H       -0.61534280       1.82429516      -0.38495588
H        0.80653936       1.41721630       0.69536430
H       -0.74131584       1.12216544       0.53830600
H        0.57877564       1.59395146       0.80249488
