21
Properties=species:S:1:pos:R:3 pbc="F F F"
H        0.00000000       0.00000000       0.00000000
H        0.52691501       0.55577880      -0.60127473
H       -0.33366841       0.46682382      -1.15336823
H       -0.75077748      -0.21783850       0.58046567
H       -1.55771852       0.30985871       0.71626997
H       -1.65039253       0.12925199       0.44525492
H       -0.05568731       1.26870108      -0.62685406
H       -0.99560803       1.70852625      -0.17566252
H       -1.84861004       1.44433439      -0.68154198
H       -0.22794688       2.11788821       0.26157895
H       -0.37502700       1.26425231       0.33993202
H       -1.07493055       0.29128850      -0.20036499
H       -2.04073238       0.50223070      -0.32258028
H       -0.78094757       1.11527205      -0.50185966
H       -0.78769165       0.52595156      -0.39527297
H       -0.08975909       0.25623283       0.41986668
H       -1.16364098       0.54412115      -0.71161568
H       -0.57741845       2.29330564       1.65512598
H        0.21804196       2.10853457       2.18537426
H       -0.59073883       2.90320563       0.89624161
H        0.94285727       2.63623190       2.56516290
