21
Properties=species:S:1:pos:R:3 pbc="F F F"
H        0.00000000       0.00000000       0.00000000
H       -0.37664786      -0.36585209      -0.88182342
H        0.37847659       0.68549418      -0.57871759
H       -0.53996193       0.46765569      -0.81762779
H        0.27251241      -0.84159708      -1.67726576
H        0.41900414       0.06999558      -1.22908854
H       -0.20588920      -1.00126600      -0.78341925
H       -0.38218215      -1.00126600      -0.90318263
H        0.58646715      -1.13986182      -2.49016714
H       -0.05934477      -0.84857333      -1.60781300
H        1.45278966      -0.74095064      -2.11111665
H        1.51009750      -0.77400970      -2.23251796
H       -0.01708680      -1.55586648      -3.04784131
H       -0.39372516      -0.54471898      -1.35124052
H        0.30937690      -0.95253009      -1.70120502
H        0.88986003      -0.75284684      -2.58056736
H       -0.53496361       0.08780804      -0.85099846
H        0.38500088      -1.82293177      -2.53168154
H        0.38500088      -1.82293177      -2.53168154
H        0.27994582       0.23191077      -1.68124592
H       -0.56363153       0.39157969      -1.11892307
