21
Properties=species:S:1:pos:R:3 pbc="F F F"
H        0.00000000       0.00000000       0.00000000
H       -0.96783787       0.05067664       0.09371616
H       -0.19253305      -0.95433736      -0.01523767
H        0.39401785      -1.79189932      -0.10339534
H        0.97521281       0.19475858      -0.25367877
H        1.32362461      -1.39298820      -0.27667242
H        0.82984340      -0.59837806      -0.54655325
H        1.40771580      -0.75012064       0.51892412
H       -1.07932091       0.39776713      -0.80914629
H        1.16268015       0.14455944       0.07980108
H       -1.85716176      -0.18805373      -1.13333976
H       -2.23790622      -0.61954331      -0.28353131
H        0.65081215      -1.57418656       0.35015434
H       -0.21948898      -0.15845418      -0.87719613
H        0.24407005      -0.90586269      -1.40617394
H       -2.11156845      -1.51541257      -0.11091964
H       -0.18509412      -1.38660181      -0.35048163
H       -2.14522028      -1.88126469       0.84738284
H        0.58870894      -1.55413997       0.81070316
H       -1.48743176      -0.84953660      -0.35361958
H       -0.25043419      -1.42586303      -0.39877951
