21
Properties=species:S:1:pos:R:3 pbc="F F F"
H        0.00000000       0.00000000       0.00000000
H        0.13252793       0.60990006       0.74734145
H       -0.36402982       0.85764241       0.43041345
H       -1.10342300       1.64337957       0.42392495
H       -1.69564557       2.25327969      -0.05079105
H        0.03965562      -0.69681674      -0.75246114
H       -2.34202147       1.78361869      -0.60727775
H       -3.30713701       1.80051768      -0.47949988
H       -2.36117196       1.48191118      -0.17484391
H       -0.51681578      -1.49142694      -0.83609796
H       -1.84912884       0.79289627       0.39118451
H       -1.00310874       1.21226442       0.91320729
H        0.62544096       0.11965567      -0.54376936
H       -0.06623685      -0.46890128      -0.65751815
H        0.38753575      -2.35833216      -1.56101108
H        0.38753575      -2.35833216      -1.56101108
H        0.38753575      -2.35833216      -1.56101108
H        0.38753575      -2.35833216      -1.56101108
H        0.38753575      -2.35833216      -1.56101108
H        0.38753575      -2.35833216      -1.56101108
H        0.38753575      -2.35833216      -1.56101108
