21
Properties=species:S:1:pos:R:3 pbc="F F F"
H        0.00000000       0.00000000       0.00000000
H        0.49089283       0.77460212       0.32722577
H       -0.04290414       1.58826292       0.36005694
H        0.62452799       2.28507972       0.70977783
H       -1.02488530       0.05341591      -0.00899383
H       -0.46243116       0.21783850      -0.82871270
H       -0.04213244       1.52201056      -0.13167349
H       -2.03836155       0.49324107       0.23573154
H       -0.79903692       0.95682764      -1.61678779
H       -2.00626159       0.56450742       0.22798032
H       -1.99734056       0.56450742       0.26227543
H       -0.66194594       0.92664123      -1.68793535
H        0.95798463       2.16069293      -0.25285321
H        1.36263621       2.07901621       0.19882584
H        2.36565590       1.56792474       0.08390211
H       -0.72880000       0.89560080      -1.69482875
H        2.14072752       0.62927943       0.21201590
H        2.31787872       1.49912095       0.02077027
H       -0.71433759       0.95682764      -1.64780307
H       -1.97966909       0.59923816       0.25734591
H       -0.75903177       0.89560080      -1.68494701
