21
Properties=species:S:1:pos:R:3 pbc="F F F"
H        0.00000000       0.00000000       0.00000000
H        0.24483983      -0.86484438      -0.37437752
H       -0.60653895       0.70907992      -0.27816749
H        0.55966538      -0.99561012      -1.39805341
H        0.50849164      -0.94493347      -2.36907053
H       -0.14086954      -0.56639254      -1.27741599
H       -0.97579765       0.65566403      -1.23426294
H       -0.22485307       1.34495425      -0.90907204
H        0.69548273       1.63624275      -1.49949896
H        0.89229441      -1.62076855      -3.11744857
H        0.68196559       1.59811795      -1.53681314
H        0.18133475       0.52043515      -0.92757326
H       -1.27285480       0.12992734      -1.92974544
H       -0.04045326      -1.60295606      -3.54522014
H       -0.13256896      -0.21312225      -2.32964206
H        0.26106435      -1.22967637      -2.94136500
H       -0.10314453      -0.10478172      -1.60345149
H       -0.88305086      -0.36460304      -2.93121624
H       -0.11169553      -0.14678642      -1.60583687
H       -0.48549530      -1.19271255      -1.24989867
H       -0.45194668      -1.30548859      -1.35253739
