21
Properties=species:S:1:pos:R:3 pbc="F F F"
H        0.00000000       0.00000000       0.00000000
H        0.36329272       0.89468008       0.34769225
H        1.00169814       0.08895500       0.20496775
H        1.92217612      -0.46396846       0.09950148
H        2.25407124      -0.77927697      -0.75985128
H       -0.86963552      -0.64590514      -0.32712606
H       -1.43771207      -0.79738593       0.44902048
H       -0.18089443      -0.11820793      -0.76897705
H        2.26874495      -0.28029725      -1.59583259
H       -0.08188176      -0.56151193       0.23889747
H        2.06097436       0.63129544      -1.17256665
H        0.47601303       1.75574028       0.34274325
H        1.65470958       0.61256951      -0.17320406
H        1.27127063       1.63509512       0.12325284
H        2.10470438       1.28800464       0.48791316
H        1.58935237      -0.54448915      -2.31829500
H        1.53898728       1.44495630      -1.28895617
H       -0.71801299      -1.14447641       1.00545764
H        1.40248990      -0.92256963      -1.08018601
H        0.31459674       1.77355278      -0.67064273
H       -1.27303696      -0.02601743       1.10567617
