21
Properties=species:S:1:pos:R:3 pbc="F F F"
H        0.00000000       0.00000000       0.00000000
H        0.54628479      -0.64623839      -0.66938484
H        0.03114647       0.16742241      -0.52568543
H        1.16119385      -1.52675223      -0.56589872
H       -0.15776351       0.09807859       1.11622679
H        0.69891953      -0.42787296       1.32309127
H       -0.23652796      -0.01963938       1.10640848
H        1.05251229      -0.76734781       1.42172694
H        0.97436178      -0.83591604       1.41045487
H        1.25907290      -1.95824182       0.36014682
H        0.94926894      -1.20458114       0.89313644
H        1.40266967      -0.85650629       0.17287302
H        1.61111987      -0.11751711       1.00408554
H        1.47937000      -0.56521779       1.26362455
H        1.25906301      -0.83869386       1.18893588
H        0.82665414      -0.11751711       0.80735856
H        0.64738178      -0.59326208       1.81829834
H        0.98471814      -0.91191614       1.43765199
H        2.55261493      -0.48392799      -0.62317133
H        2.55261493      -0.48392799      -0.62317133
H        2.55261493      -0.48392799      -0.62317133
