21
Properties=species:S:1:pos:R:3 pbc="F F F"
H        0.00000000       0.00000000       0.00000000
H        0.42330277      -0.73181123      -0.48304045
H        0.04239655      -1.62560201      -0.41893575
H        1.22075510      -1.03026307       0.08995181
H        1.50659084      -1.64016318       0.79307395
H       -0.90177631      -0.08439321       0.35740483
H        0.80713278      -0.08439321       0.53802919
H        0.92394364      -0.89949733       1.11899543
H       -1.01058793      -0.94923759       0.79130006
H       -0.68021065      -0.64017200       1.12557113
H        1.60338783      -2.49132895       0.93556023
H       -0.92242354      -2.05833244       0.58488601
H        1.99914563      -2.60319185       1.21992350
H       -1.31865573      -1.19348812       0.79250371
H        2.61260629      -2.86738372       1.99914908
H        2.42931414      -3.64198589       2.55991340
H       -0.46827406      -1.99145412       0.39266250
H        1.53527963      -0.12685201       0.17263636
H        1.88162231      -4.19776487       1.97750068
H        0.94284409      -4.28215790       1.73329961
H        1.59191108      -3.64609790       1.29921699
