21
Properties=species:S:1:pos:R:3 pbc="F F F"
H        0.00000000       0.00000000       0.00000000
H       -0.29363519      -0.58319080       0.72230726
H        0.05764964       0.61471456       0.81983322
H       -0.12575266       0.01781246      -1.01842666
H       -0.70307022       0.08701736       1.12133253
H       -0.84031212       0.57359123      -1.37700105
H       -0.48914161      -0.77679771      -0.58877099
H       -1.33285427      -0.30309814      -1.58228588
H       -1.67509782       0.13769400       1.14692819
H       -2.24616909      -0.22326672      -1.49384928
H       -0.94468641      -1.02564597      -0.96537900
H       -1.45820975       0.50354612       0.21288556
H       -2.08893061      -0.41808480       0.46288639
H       -0.80395889       0.81885463      -0.43564916
H       -1.41717494      -0.07964468      -0.56574506
H       -1.51325440      -1.00600660       0.01279050
H       -2.61155415       0.16666073      -0.27810246
H       -2.62789679      -0.26482886      -1.20916295
H       -1.67531657      -1.04528534      -0.10151279
H       -0.56314719       0.06304765       0.42157096
H       -1.61526406       0.11324482      -0.03752685
