21
Properties=species:S:1:pos:R:3 pbc="F F F"
H        0.00000000       0.00000000       0.00000000
H        0.93511528      -0.39891118      -0.14054634
H        1.15380037      -0.89395928       0.73147893
H        1.65513229      -0.55858010      -0.85427260
H        0.72049189      -1.66856146       0.33110881
H        1.70615661      -0.47795457       1.33990347
H       -0.64729339       0.52595156      -0.59808874
H        0.23333412       0.77659512      -0.92934966
H        1.88895333       0.33851784       0.74552816
H        2.39502335       1.17024887       0.75885415
H        0.04703388       1.10894728      -1.88232303
H       -1.39527917       0.17886108      -1.11587858
H        1.37140906      -1.47701073      -1.00934422
H        2.23887324      -1.11382890       1.84974432
H        2.18370152      -2.12620854       1.69047332
H        3.06320214       1.01057994      -0.00361991
H        2.72937274       1.11957228       1.67192769
H        0.12670660      -1.37010968      -0.45098418
H        2.60272169      -0.13921192      -0.55372012
H        3.05429649       0.48369789       2.33385611
H        3.15572000      -0.48173326       2.25824642
