21
Properties=species:S:1:pos:R:3 pbc="F F F"
H        0.00000000       0.00000000       0.00000000
H       -0.13959605      -0.55577880       0.78719991
H        0.00349170      -0.64473379       1.79959154
H       -0.48515171      -0.69541043       2.64025831
H        0.30624014       0.21291459       1.94492030
H       -0.47688580       0.83173102       0.16989513
H        0.19340628       1.15501833       2.33611465
H       -0.85929501      -0.20868832       1.34363723
H        0.04256004      -1.48980951       3.01943421
H       -0.42123595       0.83173102       0.28079298
H        0.23897430       0.53486323      -1.02915835
H        0.23897430       0.53486323      -1.02915835
H        0.23897430       0.53486323      -1.02915835
H        0.23897430       0.53486323      -1.02915835
H        0.23897430       0.53486323      -1.02915835
H        0.23897430       0.53486323      -1.02915835
H        0.23897430       0.53486323      -1.02915835
H        0.23897430       0.53486323      -1.02915835
H        0.23897430       0.53486323      -1.02915835
H        0.23897430       0.53486323      -1.02915835
H        0.23897430       0.53486323      -1.02915835
