21
Properties=species:S:1:pos:R:3 pbc="F F F"
H        0.00000000       0.00000000       0.00000000
H       -0.21671417       0.94706190      -0.06457304
H        0.17617394      -0.77136850      -0.65366453
H        0.19085106       1.90540290      -0.34670821
H       -0.36823800       1.82100964      -1.13939869
H       -0.62697178       0.45201382      -0.86453551
H        0.09095444      -0.82204515      -1.62228751
H        0.47429675       0.14022416      -1.01896644
H       -0.46651024      -0.21214509      -2.13737583
H       -0.63942075       0.68253499      -1.66517520
H        1.14338827       0.80130678      -1.27065504
H       -0.27771020       0.51966614      -2.75127149
H        1.03157580       1.96155810      -1.02061915
H       -0.32318550       2.55282092      -0.49870878
H       -0.17290705       0.69189107      -1.37270176
H        0.80459499       1.35752809      -2.06385159
H       -0.83122689       2.99264622      -1.40915847
H        0.48531449       0.60862112      -2.07068038
H       -1.19798899       2.32240033      -0.72389954
H        1.97131276       1.28880048      -0.23986167
H        2.05326843       0.70560968       0.53553027
