21
Properties=species:S:1:pos:R:3 pbc="F F F"
H        0.00000000       0.00000000       0.00000000
H       -0.02074104      -0.97334045      -0.01546210
H       -0.11993916      -1.97926354      -0.19323285
H       -0.71803838       0.52769721      -0.39245063
H       -1.47574687      -0.02808160      -0.64749712
H       -0.60100967      -0.52769721      -0.55532330
H       -1.93779230       0.03081287       0.38377231
H       -1.33558440       0.04771187       1.14870429
H       -0.50859404      -0.92558122      -0.05477084
H       -2.19048047       0.36316508      -0.55378550
H       -1.25269401       0.69189548       0.17963746
H       -0.70418751       0.77952307       1.03101301
H        1.22722054      -2.35184193       0.18256108
H       -0.86999565      -0.66136807       1.62671447
H        0.01262397      -0.32901588       1.22193241
H        1.22472501      -2.30307746       0.23326211
H       -0.07765907      -0.68009400       0.89460832
H        1.31670439      -2.15468097      -0.20584029
H        1.30843008      -2.20443773      -0.25594574
H       -1.56939697       1.21364832      -0.13977545
H        1.30975115      -2.20443773      -0.20577927
