16
Properties=species:S:1:pos:R:3 pbc="F F F"
H        0.00000000       0.00000000       0.00000000
H        0.68725604      -0.43977645       0.53135377
H        0.63639784       0.48932126       0.81814951
H        0.92767751       1.28393137       0.33668122
H       -0.22026545       0.92909771       0.96232188
H        0.04159930       1.57196522       0.20636415
H       -1.14152360       0.64595109       0.82385820
H        0.28875053       0.92909771       0.03822957
H       -1.41738749       0.74083346       1.22993267
H        0.34599137       0.00004873      -0.45381790
H        1.61217880      -0.95086801       0.93604410
H        1.04236722      -1.72223651       0.57049060
H        1.62787211      -0.91552138       0.94291055
H        1.62787211      -0.91552138       0.94291055
H       -0.77091980       0.65187848       0.43778968
H        1.40754271      -0.83200949       0.81682795
