21
Properties=species:S:1:pos:R:3 pbc="F F F"
H        0.00000000       0.00000000       0.00000000
H       -0.26684549      -0.92909771       0.11675546
H        0.39005271      -1.29494977      -0.58178645
H        1.00591075      -0.50055075      -0.78908569
H        0.90783489      -1.52456331      -1.43765032
H        0.07133195       0.15066451       0.10190770
H        0.73418689      -0.81548339      -2.08194304
H        0.00087178      -0.28953183      -1.59312022
H        1.49380767      -0.42824912      -2.43031597
H        1.16943944       0.40403914      -2.65485835
H        1.85843277      -1.15871119      -1.31179452
H        1.57370448       0.05522805      -1.35191870
H        0.22236133       0.52842605      -2.27949882
H        2.16491222      -0.57972991      -1.74130702
H        0.80305195       0.27405137      -0.23509938
H        1.35338283       1.00678301      -0.14248142
H        0.56090367       0.21012759      -0.00911094
H       -0.85515285      -1.34999132      -1.13688648
H       -0.85515285      -1.34999132      -1.13688648
H       -0.85515285      -1.34999132      -1.13688648
H       -0.85515285      -1.34999132      -1.13688648
