21
Properties=species:S:1:pos:R:3 pbc="F F F"
H        0.00000000       0.00000000       0.00000000
H        0.73469222      -0.22961354      -0.67884368
H       -0.64608496      -0.34709048      -0.64043999
H        0.51603723       0.68549418       0.46028703
H        0.46797457      -0.17619763      -1.66845584
H       -0.57280713       0.15188923      -1.47333288
H        1.73033619       0.00000000      -0.58243507
H       -0.11567906      -0.55719066      -1.95944047
H        1.16121531       0.52595156       0.09046930
H        0.14530501      -1.16709065      -1.24672019
H       -0.22458655       1.04568005      -1.30617619
H        0.00202294       0.76253343      -0.40255183
H        0.89193243       0.68864673      -1.81116104
H        0.82373363       1.28706861      -1.38914359
H        1.20709395      -0.18804264      -1.38056517
H        1.28652143       1.27108312      -0.59295911
H        0.50448924       0.62517798      -1.09465933
H        0.40830860      -1.38492918      -0.33488888
H        0.25616238      -0.43453968      -0.46236885
H        1.11317503      -2.50523567       0.25073224
H        0.69997054       0.43352115      -0.68111682
