21
Properties=species:S:1:pos:R:3 pbc="F F F"
H        0.00000000       0.00000000       0.00000000
H       -0.43620220       0.58582085      -0.72101700
H       -0.93407023       0.73730165      -1.54396403
H       -1.57121074       0.35884744      -2.17553759
H       -0.42512390      -0.28314662      -0.82895029
H       -0.86576253      -0.33250040      -1.66637683
H       -1.96357775      -0.53583264      -2.49005270
H       -1.34195399      -0.54780948      -1.90447402
H       -2.55463219      -1.14721942      -2.66616583
H       -2.79823589      -1.13854158      -3.10272264
H        0.16915779      -0.52014315       0.67453080
H       -3.23102760      -1.01415467      -4.02497149
H       -3.83690310      -0.45837587      -4.54658985
H       -2.28235316      -0.79631615      -3.99999070
H       -3.97550678       0.45321679      -4.99726915
H       -3.22065353       0.89299321      -4.56732273
H       -1.45547032      -0.38695419      -4.31103468
H       -3.50648952       0.28309315      -3.86420059
H       -2.44416666       1.56323910      -4.60141468
H       -4.03434658       1.42509031      -4.98947906
H       -4.53621387       2.13379669      -4.99388313
