21
Properties=species:S:1:pos:R:3 pbc="F F F"
H        0.00000000       0.00000000       0.00000000
H       -0.56912082      -0.52595156       0.67290437
H       -0.01606987       0.46354809      -0.91552651
H        0.92314816       0.43148959       0.12222161
H        0.30587304       0.08209369      -0.69081062
H       -0.37096053      -0.06697792       0.66420412
H        1.59188628       1.23550892       0.67782634
H        1.55076098       1.26519871       0.68203008
H        1.55076098       1.26519871       0.68203008
H        1.55076098       1.26519871       0.68203008
H        1.54737520       1.29388404       0.64084548
H        1.55076098       1.26519871       0.68203008
H        1.59188628       1.23550892       0.67782634
H        1.56519151       1.29388404       0.61861908
H        1.52879000       1.29388404       0.66243285
H        1.55076098       1.26519871       0.68203008
H        1.57002044       1.26519871       0.65965962
H        1.57002044       1.26519871       0.65965962
H        1.57002044       1.26519871       0.65965962
H        1.57002044       1.26519871       0.65965962
H        1.57002044       1.26519871       0.65965962
