21
Properties=species:S:1:pos:R:3 pbc="F F F"
H        0.00000000       0.00000000       0.00000000
H        0.05739931      -0.52769721       0.81627315
H        0.14781994       0.89468008      -0.48064619
H        0.10467312       0.41936469       1.03740633
H       -0.64589787       1.02926469       0.92459667
H        0.41793016       1.05523908       0.36987758
H       -0.58115083      -0.52769721      -0.57607317
H       -0.42603517       1.11251855      -1.23648858
H        0.11148214       1.92008352       0.04400235
H       -1.29827809       1.05910265      -0.69828522
H       -0.09136638       1.02356350      -2.20261884
H       -0.11978255       1.83112848      -0.95195329
H       -0.98786980      -0.78086090       0.46443304
H       -1.03201187      -1.25024509      -0.00338411
H       -0.08683407       1.82387483       0.86054039
H       -1.08229363       0.20411402      -0.97778106
H       -0.65432656      -0.69646770       1.37530494
H       -1.56767750       0.87778389       0.64993942
H       -0.09136638       1.31485200      -1.10917389
H       -1.25465250       0.28183693      -2.64020586
H       -1.25465250       0.28183693      -2.64020586
