21
Properties=species:S:1:pos:R:3 pbc="F F F"
H        0.00000000       0.00000000       0.00000000
H        0.65604281      -0.46966103       0.54505712
H        0.09992468      -0.96470910       1.25144506
H        1.39649785      -0.52307695       1.25371563
H       -0.90177631      -0.08439321       0.35740483
H       -1.32951629      -0.76988739       0.90072531
H       -1.13728034      -1.72422481       0.91933960
H       -0.21085456      -0.73509556       2.20224357
H       -0.83398020       0.03361489       1.32153070
H       -0.19736940      -1.46003294       0.60296333
H       -0.77338111       0.05951458       2.21705627
H       -0.12048911      -1.70433187       2.22406435
H       -1.27910984      -0.81717479       2.04682684
H       -0.29235804      -1.77490139       1.40058720
H        0.56548738       0.06274390       1.39357066
H       -1.09363389      -1.33789229       1.77776611
H       -0.95690072      -0.96534270       2.03756642
H        0.12271270       0.42785051       2.04533958
H        0.26964638      -0.61087930       1.62116778
H        0.14907798      -0.66300762       1.74566567
H       -0.69070280      -1.30380487       1.20219707
