21
Properties=species:S:1:pos:R:3 pbc="F F F"
H        0.00000000       0.00000000       0.00000000
H        0.47219095      -0.55577880       0.64514065
H        0.36986193      -0.53887981       1.61328530
H       -0.44889161      -0.31530851      -0.80444878
H       -1.37974238      -0.16382772      -1.04658771
H       -0.92359924      -0.89563894      -1.49874556
H        0.56499231      -1.33038092       0.06252545
H       -0.39666328      -0.85418832       2.12424564
H       -1.31657517      -1.84124470      -1.98027492
H       -0.25177521      -1.20599401      -0.54636091
H       -0.17748123      -1.44201016       0.59601367
H       -2.28061438      -0.49289000      -0.44607264
H       -0.89835620      -1.96774685       0.82465768
H       -0.84445351      -0.61586303       0.26784015
H       -2.05130267      -0.65255892      -1.43361807
H       -1.05017519      -2.00264931      -0.63783991
H       -0.26073492      -1.14368105       0.38326728
H       -0.74940771      -1.20537031      -1.50905764
H       -0.46968627      -2.33629274      -1.67856240
H       -0.90680492      -2.12664461      -1.95507193
H       -1.57210970      -1.21543789      -0.27498901
