21
Properties=species:S:1:pos:R:3 pbc="F F F"
H        0.00000000       0.00000000       0.00000000
H       -0.51304650      -0.77136850      -0.44169885
H       -0.32940632      -1.71843040      -0.30974814
H        0.43239075      -2.06782627       0.36974809
H        0.93773615      -0.01689900       0.26158407
H        0.61332822      -1.90320134      -0.15109059
H        0.75199014       0.19475858       0.67074877
H        0.52479184      -0.97611469      -0.22933610
H        1.32796550      -0.39136916       0.19151066
H        0.80837393      -1.77653778       1.39651895
H        1.51397729      -1.16663766       1.67617369
H        2.27976894      -1.14882517       2.35923290
H        1.60100234      -0.35016525       2.29190373
H        0.20230132      -1.79435027       2.22457838
H        0.84012091      -1.73876405       1.37271607
H        0.72135931      -0.87611681       2.34600616
H        1.29314756      -1.69464743       2.45476794
H        1.51573133      -1.76353979       2.66204715
H        0.72909439      -1.70138669       1.39841712
H        0.77210844      -1.77653778       1.40908146
H        1.15283513      -1.62956429       2.18985653
