21
Properties=species:S:1:pos:R:3 pbc="F F F"
H        0.00000000       0.00000000       0.00000000
H       -0.77018702      -0.01689900       0.59547228
H       -1.44593167      -0.63161355       0.12769118
H       -1.21307027      -0.54285055       1.35741270
H       -1.64637876      -1.31745267       0.95704257
H       -1.62179577      -2.34340620       0.96884316
H       -0.66251761      -0.72254789      -0.30384013
H       -1.67113280      -1.59599769       1.67046297
H        0.97797602      -0.26419187       0.16458853
H       -0.33482733      -1.62920475      -0.44041690
H       -0.57893395      -2.67246842       1.25975227
H       -1.24578631      -1.40170932       2.40223312
H       -0.77532887      -0.90929019       2.33443642
H        0.08675236      -3.31533599       1.70349419
H        0.42278799      -3.93005061       2.45351410
H        0.13736558      -1.19243681       2.52119207
H       -1.26480591      -0.51037902       1.52535915
H        1.06562984      -4.61554480       2.70829439
H        0.47313163      -1.29685259       0.09816298
H        0.64050591      -4.89869118       1.87934411
H       -0.29149309      -1.17884445       0.68933475
