21
Properties=species:S:1:pos:R:3 pbc="F F F"
H        0.00000000       0.00000000       0.00000000
H        0.80713278      -0.08439321       0.53802919
H        1.73963737      -0.48330438       0.69496512
H       -0.62619561       0.28314662       0.68975931
H       -0.54018503      -0.24455059       1.50351524
H        0.52377367       0.00456179       1.52043366
H        1.34133029      -0.24608180       1.98609436
H       -0.37266144      -1.15120745       1.81651688
H        0.15092999      -0.70907992      -0.64998984
H        0.68757588      -0.90383852       0.20289010
H        0.05373836      -2.00000668       1.60254431
H       -0.62827855      -0.68872690       0.74907583
H        0.48810339      -2.08896160       0.67694294
H       -0.79318064      -1.61037469       0.21288568
H        2.20370388       0.33316803       1.10889626
H        0.81799889      -2.55250978      -0.17723262
H        0.70084524      -2.73728085      -1.12601900
H       -0.15949956      -1.36594129       0.72613978
H       -0.24790829      -1.98219419       0.62172019
H        0.59225637      -0.53737032       1.18953300
H        2.89764786       1.03131282       0.04780674
