21
Properties=species:S:1:pos:R:3 pbc="F F F"
H        0.00000000       0.00000000       0.00000000
H        0.19410905      -0.89379078       0.33394706
H       -0.77766120      -0.01781246      -0.66951448
H       -1.60995126      -0.44930205      -1.08716738
H       -0.57702255      -1.04527164      -0.24091852
H        0.27453160      -1.83243608       0.57999206
H        0.34537837      -2.66416717       1.08125567
H       -0.42532501      -3.12771535       0.58682323
H       -1.06246555      -3.50616956      -0.04475045
H       -2.10430002      -1.34398210      -1.17931306
H       -1.41045642      -0.69818115       0.12374178
H       -0.66117018      -0.93624306      -0.97113663
H       -1.36864483       0.15061796      -0.35149798
H       -0.82425970      -2.40516758      -0.02317637
H       -0.19280592      -2.42707181       0.37239647
H       -1.08887506      -4.74252653       0.70731300
H       -1.39693522      -1.82197678      -0.55231929
H       -1.35901260      -4.85390282       0.39177004
H       -1.34351039      -4.85390282       0.40190834
H       -1.24674785      -4.79174900       0.59415531
H       -1.13235891      -4.79174900       0.61651760
