21
Properties=species:S:1:pos:R:3 pbc="F F F"
H        0.00000000       0.00000000       0.00000000
H        0.90784711      -0.05341591       0.47569352
H        0.50360096       0.39891118       0.80036235
H       -0.88058829      -0.13076572      -0.60958326
H       -1.50071645       0.39693147      -1.14347243
H        0.40598631       1.00041389       1.49101686
H        1.11680698       0.87602699       2.22080159
H        1.83043492       0.24015260       2.03516793
H        2.00999117       0.38097891       2.11846256
H       -1.08950090       0.92462867      -0.43601334
H       -1.43645370       1.30547738      -1.28041196
H        1.24046326       0.38714421       1.03492570
H        1.31546450       0.42051858       1.14890337
H       -1.23931539       2.01418376      -1.74196029
H        1.49905229       0.70912540       1.51979983
H        1.36621416       0.66806173       1.34669614
H        1.19981098       0.41459304       1.77382469
H        0.44653735       0.51034880       1.58152533
H        0.82821399       1.09024405       0.68792856
H        1.24721575       0.52816123       0.93971491
H        0.62030989       0.97592938       1.63664174
