21
Properties=species:S:1:pos:R:3 pbc="F F F"
H        0.00000000       0.00000000       0.00000000
H       -0.50107276      -0.25064358       0.79634464
H       -0.26696298       0.67676330       1.16841030
H       -0.30267790      -0.03280509       1.72437847
H        0.54340065       0.83756196       0.23775932
H        0.99978703       1.66929293       0.45683903
H        1.83555436       1.82077372       0.93287206
H        0.63333935       0.72254789       0.36073494
H       -0.10399701      -0.35799721      -0.84223545
H        0.86018127       2.50646305       0.27295995
H        1.02565634       1.14301145       0.52645564
H        0.78479928       1.38005340       0.35035306
H        1.85865211       2.31984401       0.91298640
H       -0.75429350      -1.15143549      -0.44733965
H        1.81229270       2.31848955       0.89118546
H       -0.37755421      -0.68452728      -0.58042526
H        0.41407332       0.49293160       1.48311830
H        1.53079844       0.66897684       1.43408823
H        1.51356506       0.37052503       0.45227695
H        0.49828768       0.09776753       1.53406668
H        0.49828768       0.09776753       1.53406668
