21
Properties=species:S:1:pos:R:3 pbc="F F F"
H        0.00000000       0.00000000       0.00000000
H        0.50912565      -0.18477097       0.80914259
H       -0.14556891      -0.02510203       1.58322573
H        0.55268204      -0.14311013       2.25149250
H        1.52470970      -0.09243349       2.27708817
H        0.72720009      -0.64286757      -0.33350441
H       -0.98723358       0.05341591       0.27539173
H       -1.39272523      -0.21077596       1.18043494
H        2.08861160      -0.83984202       1.85670853
H       -0.72235489      -0.69399261       0.92696190
H        1.30257964      -1.02461302       1.31258154
H        1.45150733      -0.55495203       2.15240288
H        1.37254095      -0.71072257       0.98581481
H       -1.35349667      -0.38682121       2.29754734
H        0.22948542      -1.22868848       0.34650871
H       -0.58062947      -0.93042368       0.66758496
H        1.30346978      -0.92601418       0.39848062
H       -1.60188425       0.16895759       3.05746460
H       -1.66894281      -0.01581338       4.01110172
H       -0.61092961      -0.52015013       0.81401145
H        0.65571350       0.88150615       0.78894407
