21
Properties=species:S:1:pos:R:3 pbc="F F F"
H        0.00000000       0.00000000       0.00000000
H        0.12529835      -0.08895500      -1.01474690
H        0.47561887       0.74860698      -0.53611422
H       -0.02612363      -0.57627481      -1.96538782
H        0.32335395      -0.66066802      -2.87026572
H       -0.37801433      -0.13123888      -1.30791461
H       -1.00216711       0.01963938       0.52511537
H        0.72100604      -0.07484716      -2.12729168
H       -0.17197311      -0.50631219       0.82088006
H       -0.85725850       0.33494788      -0.38463354
H        1.35670888       0.84861869      -1.97378755
H        1.36170435       0.84861869      -1.99619174
H        1.35093021       0.84861869      -1.95157266
H        0.49218747       1.89020252      -0.85050160
H        1.35670888       0.84861869      -1.97378755
H        0.10535175      -1.55999446       1.12635553
H        0.00678562      -1.51140165       1.30905151
H        1.14487147       2.22255468      -0.13156521
H        1.38747978       0.82536608      -1.96635735
H       -0.46826884       1.87239003      -1.21179128
H       -0.32695004       2.38918233      -0.68288940
