21
Properties=species:S:1:pos:R:3 pbc="F F F"
H        0.00000000       0.00000000       0.00000000
H        0.83968246      -0.37845421      -0.31585881
H        0.55020261      -0.85764241      -0.12268072
H       -0.78517431       0.34939590       0.65234280
H        0.61412758      -1.95828187       0.13222551
H        0.62875932      -1.92500770       0.24478486
H       -0.84823704      -0.14565217       1.54915619
H       -1.75372124       0.20143831       1.63683462
H       -0.68287164      -0.65652716       0.82834524
H       -1.67492926      -0.29360977       0.74126601
H       -2.35184121       0.07282984      -0.08818161
H       -3.23900199       0.45128405      -0.22152050
H       -3.43256879       1.44953835      -0.08243737
H        0.64160693      -1.92500770       0.24180159
H        1.63418984      -0.90440577       0.06552950
H       -2.23688436       0.18213519      -0.11800343
H       -2.32290721       0.91436052       1.50992107
H       -2.48238206       0.75469160       0.50872314
H       -2.71685243       0.62307203       0.48990679
H       -1.57586491       1.52907515       1.16731679
H       -1.57410455       1.55722809       1.22824800
