21
Properties=species:S:1:pos:R:3 pbc="F F F"
H        0.00000000       0.00000000       0.00000000
H        0.21426670       0.05341591       1.00227761
H       -0.60280317       0.35186774       1.54693079
H       -0.94162345       1.20066690       1.21107090
H       -0.86227483      -0.40936196      -0.19226480
H       -0.26030821       1.69571495       0.62450397
H        0.89172000       0.73891008       1.14089823
H        0.63051778       1.74639153       1.01427567
H        0.51350784       2.24537134       1.84215784
H        0.89172000       0.82330328       2.11091828
H       -0.39789689       2.70891953       1.93040955
H       -1.11439121      -0.75645244       0.68182129
H        0.35699821      -0.01425868       2.36760163
H       -0.54319835      -1.50386095       1.09223962
H       -0.28189802       0.44928941       3.02354264
H        0.14784461      -1.75450456       0.45372707
H       -0.07235393      -0.26490226       1.53040671
H       -0.79939520       2.41046762       2.82653975
H       -0.00554535      -1.19872570      -0.33090168
H       -0.21415091       1.66305912       3.21665955
H       -1.07037544       1.83654130       1.93712020
