21
Properties=species:S:1:pos:R:3 pbc="F F F"
H        0.00000000       0.00000000       0.00000000
H        0.54069358       0.79439902       0.36042264
H       -0.05896294       1.56576753       0.67463058
H       -0.20458627       2.17566752      -0.07026988
H        0.98380041       1.12675118      -0.50359249
H       -0.98841047       1.13427794       0.73179626
H        0.68116766       2.04518175      -0.61743224
H        0.73536468       0.51685113      -1.22078323
H        0.12424027      -0.15966894      -1.00617802
H       -1.12174702       2.15785503      -0.53051198
H       -1.60105419       1.42604375      -0.10298660
H       -1.71294093       0.71312153      -0.67531610
H       -1.25646901       0.94273508      -1.56539178
H       -0.39740747       0.50295866      -1.69450736
H        0.24680269       1.95622671      -1.54303360
H       -0.80777806       0.13602364       0.57628381
H        0.47349998       1.15971875      -1.97674096
H       -1.24621069      -0.06148058      -0.31446239
H       -0.96900553       1.82550287      -1.48943639
H       -0.76720476       2.08061361      -1.44484687
H       -0.41503903       0.67239892      -2.34707189
