21
Properties=species:S:1:pos:R:3 pbc="F F F"
H        0.00000000       0.00000000       0.00000000
H        0.50421435      -0.31530851      -0.77097952
H        0.65354043      -1.37281752      -0.61766958
H        0.34466237       0.84879911       0.32986191
H        0.42467710      -1.62346113       0.29494220
H        0.61229569      -0.85209262       0.94541419
H        1.73065209      -1.42897272      -0.58930671
H        1.24327421       0.86569810      -0.04466712
H        1.38277233       0.21064305      -0.84051144
H        2.17819953      -0.31705415      -0.64843845
H        2.47702599      -0.16557336       0.26579195
H        1.89395869       0.41135907       0.68474227
H       -0.09677097      -0.68549418       0.68468529
H        0.03288858      -0.13257074       1.60206819
H        1.84555495      -1.28512955      -0.72260952
H        0.68893141      -0.60223174       2.14712524
H        0.42385077       0.61908746       1.24082541
H        1.40486109      -0.29631382       1.05034709
H        2.55186963      -0.97923416       0.79533470
H        1.41791654      -1.78313005       0.49817911
H        1.37762594       0.60218847       1.43598723
