21
Properties=species:S:1:pos:R:3 pbc="F F F"
H        0.00000000       0.00000000       0.00000000
H       -0.81573808      -0.52769721      -0.06456009
H       -0.09677097       0.68549418       0.68468529
H       -1.45436347       0.05812365      -0.61437404
H       -0.92133814       0.80553216      -1.07327330
H       -0.40376836       0.40662098      -1.86467421
H       -0.66952813      -0.54904431      -2.12811184
H       -2.28775859       0.30876723      -0.17769182
H       -1.39321709      -0.79968786      -1.52685249
H       -0.72009075       0.49073559       1.47643363
H       -0.26865411       1.13788438      -0.35433692
H       -0.42749855       0.79079390       0.54140717
H       -1.69790363       0.28598940       1.06889451
H       -1.68332148       0.53852558       0.23813105
H       -1.22546732      -0.54276931       0.70097888
H       -0.48359329      -0.96213746       1.36270440
H        0.13741291      -1.07674146      -1.99230766
H       -2.43126392       1.08336937       0.39454824
H        0.17002648      -1.22632933       0.61684400
H       -0.08415261      -1.63252020      -1.22414136
H        0.47634909      -1.41468167      -0.45834428
