21
Properties=species:S:1:pos:R:3 pbc="F F F"
H        0.00000000       0.00000000       0.00000000
H       -0.01035373      -0.77460212      -0.58986890
H       -0.67648053      -0.72392547      -1.29822469
H        0.82397598      -0.85899532      -1.08467460
H       -0.49139518      -1.25162268      -2.09530687
H       -0.67291141       0.55577880      -0.43169558
H        0.88617635       0.46354809      -0.23051801
H       -0.94123590       0.20517224      -1.41964531
H        0.80719841      -0.67422438      -2.04051924
H        0.80654335       1.29527915      -0.73046100
H        0.26236826      -1.75060236      -1.73347688
H       -0.20684481      -0.37110877      -2.65015221
H        1.27312434       1.20632410      -1.64024830
H       -0.18297619       1.45494807      -0.95109802
H       -0.20158768      -0.69203681      -2.22855496
H        0.63921112       1.35780489      -2.36362123
H       -0.19188753       1.30943942      -0.81727630
H        1.40888858      -0.01314175      -2.42652416
H       -0.14913553       1.59490013      -1.95054340
H        1.06287503      -1.04598475      -1.56967700
H        2.16069078      -0.06929694      -1.65466452
