21
Properties=species:S:1:pos:R:3 pbc="F F F"
H        0.00000000       0.00000000       0.00000000
H        0.30968034       0.89379078      -0.23086154
H       -0.03578863       1.25964284      -1.12535989
H        0.68725604      -0.43977645       0.53135377
H        0.04207527      -0.55577880      -0.79837370
H        0.88606817      -0.40429801      -1.25966597
H        1.69320095      -0.31990480      -0.72163677
H        1.55350947      -0.96277237       0.06610143
H        1.35050297       0.33159205       0.66706753
H        1.32650900       1.01817763      -0.16832133
H        1.82292628       0.89379072      -1.05794013
H        0.92263770       1.55809462      -1.33906376
H        1.02464223      -1.31646585       0.11794087
H        1.78522623      -0.46379265       0.86946160
H        0.77134097       1.40661383      -2.28891826
H        1.70651674       0.02894634      -1.48985887
H        2.47697115       0.15092191       0.42568356
H        2.68899083       0.61064410      -0.71468920
H        2.65361309       0.99525785       0.29275709
H        1.65426648       1.37987161       0.42506704
H       -0.16160813       0.26922607      -1.53447032
