21
Properties=species:S:1:pos:R:3 pbc="F F F"
H        0.00000000       0.00000000       0.00000000
H       -0.50007260       0.47200781      -0.61275923
H       -0.36002165       0.18477097       0.88560998
H       -1.04935622       0.87026513       0.83105385
H       -0.75187278       1.34869719      -0.14229530
H       -0.62030154       1.79767203       0.73538595
H        0.08997446       1.90491843      -0.33000511
H        0.41514724       0.46791759       1.40233231
H        0.14349329       1.22157824       1.95574045
H       -1.65306306       0.60242379       0.18907505
H        0.31357384       2.34919238       0.44521213
H        1.00255895       0.15966894      -0.15068299
H        1.22682190       2.03388381       0.56612301
H        1.18001497       1.32480383       1.23176241
H        0.71403754       1.29501843      -0.76200992
H        0.55697942       0.41517079      -0.37566587
H        1.45564485       1.59328318      -0.30441335
H        1.65217865       0.40315598       0.92885321
H        0.47480863       1.97371733       0.95946765
H        1.66135395       0.69949239       0.02251583
H       -0.88073242       1.23939073       2.01873541
