21
Properties=species:S:1:pos:R:3 pbc="F F F"
H        0.00000000       0.00000000       0.00000000
H        0.73469222      -0.22961354      -0.67884368
H        0.25423062      -0.52769721       0.77779388
H        0.05500522       0.94706190       0.21933794
H        1.56538773      -0.41438451      -0.20569935
H        0.79048514      -1.30229926       0.53185987
H        0.83690822       0.56478548      -1.32056475
H        0.63918841      -1.45378006      -0.41799468
H       -0.33713651      -1.22416651      -0.63568962
H        1.24770617      -0.84388000      -0.87163448
H        1.25038421       0.24669811       0.43601987
H        0.45817113       0.44098651       0.13801739
H        0.80059659       1.44623494       0.42732272
H        1.72437203       0.48379338       1.18931866
H        1.66228700       0.89001364       0.38949001
H        1.01004434      -0.09939742       1.50186527
H        0.36279261      -0.36723879       0.90381509
H        1.64462256       0.28356439      -1.47112131
H       -0.89924377      -0.99455297       0.19173825
H       -1.18915808      -0.06545526       0.21981077
H       -0.38824585      -0.51124430      -1.21660924
