21
Properties=species:S:1:pos:R:3 pbc="F F F"
H        0.00000000       0.00000000       0.00000000
H        0.19410905      -0.89379078       0.33394706
H       -1.01284361       0.15966894      -0.04446920
H       -1.39929056       0.17748140       0.90614396
H       -0.58053386      -1.47698164       0.24519011
H        0.49657324      -0.91068977       1.25930691
H        0.49657324       0.03141391       1.66644871
H       -0.20421597       0.11580712       2.33714485
H       -0.59707725      -0.76404053       2.47710538
H       -0.64730042       0.37223998       1.57689273
H       -1.35837460      -0.89116079      -0.07900336
H       -1.31398928      -0.76773798      -0.36470592
H        0.00695044       0.68754852       0.92835802
H       -0.13557419      -1.52540433       1.78451109
H       -0.29642299      -1.35897350      -0.67861497
H        0.36401609       0.61723477       0.83424300
H       -0.51699591      -0.91550428       2.44071245
H       -1.53827000      -0.68736297       1.33133769
H        0.50303257      -1.51378155      -0.62944430
H       -1.32813108      -1.34844565       0.64805716
H       -0.70793504      -0.77631795       1.92795706
