21
Properties=species:S:1:pos:R:3 pbc="F F F"
H        0.00000000       0.00000000       0.00000000
H        0.79402828      -0.31375703       0.65969908
H        1.58870554      -0.43176514       0.10958737
H        0.55673689      -1.20843709       1.10305476
H        1.37405419      -0.21392664      -0.81482166
H        0.44374657       0.21756294      -0.85566711
H        1.83254826      -1.37041044       0.19645873
H        1.10773301      -1.89810765       0.57624733
H       -0.41847593      -1.40319562       0.84937608
H        0.55233616      -2.48392844      -0.05752873
H        1.72106516      -1.71750093      -0.70640373
H        1.50155830      -1.07156909      -1.36392653
H       -0.38603133      -2.15685630       0.23374325
H        0.97592896      -2.41431761      -0.81839657
H        0.64189649      -1.22304988      -1.79531503
H       -0.71500713      -0.60879660       0.27116913
H       -0.07244885      -0.47925380      -1.40458655
H       -0.86154974      -0.89194322      -0.64883852
H        0.32874465      -2.05478096      -1.39754581
H       -0.83439374      -1.91357052      -0.55468899
H        0.50456488      -1.23291445      -1.62163866
