21
Properties=species:S:1:pos:R:3 pbc="F F F"
H        0.00000000       0.00000000       0.00000000
H       -0.90169489       0.25064358      -0.26867270
H        0.19018230       0.34709048       0.88961780
H       -1.45781660      -0.67100430      -0.19504416
H        0.60895228      -0.42427802       1.42154479
H       -0.97950923      -1.48747671       0.20234582
H       -0.73287237      -2.18429351      -0.50965190
H       -1.33898067      -1.94290495      -1.36900723
H        0.55165762      -1.28262091       0.77032113
H        0.21733093      -2.16739440      -0.72152221
H        0.67916405      -1.55267978      -0.04169863
H       -1.65714276      -0.93884563      -1.05345428
H       -1.36337960      -0.25335145      -1.67944288
H        0.21262342      -1.05750895      -0.02436191
H        0.29292339      -1.61117315      -1.58072388
H        0.91187787      -0.79470074      -1.52079034
H       -0.20260698      -1.10024238       0.51025873
H       -0.80726266       0.30679876      -1.34201169
H        1.21434212      -0.81159973      -0.59543055
H       -0.60867763      -1.32802653      -1.81525421
H        0.26539975       0.06364208      -1.61795497
