21
Properties=species:S:1:pos:R:3 pbc="F F F"
H        0.00000000       0.00000000       0.00000000
H       -0.72715116       0.63587439       0.12237607
H       -1.53474522       0.19609794       0.44245327
H        0.54583669      -0.05341591       0.86748660
H       -1.48423386      -0.77577555       0.47362044
H       -0.47585598       1.34495425       0.74053246
H        0.49467465       1.29427767       0.80022508
H       -0.59029317      -0.90016246      -0.01497120
H       -1.04833066       1.22056735       1.58322132
H       -1.66422462       0.46690667       1.55618036
H       -1.54892397       0.21626309       0.62240076
H       -0.66444564      -0.94363266       1.15472150
H       -0.84708047      -0.75704962       1.34414458
H       -0.20728666       0.92927885       2.28198218
H       -0.14842665      -1.58187819       0.05939276
H       -0.55516315       1.88494420       2.41985750
H        0.35325047      -0.36872441       1.76834846
H       -1.02978516       0.34345800       2.09858656
H        0.75549930      -0.99713266      -0.01214684
H       -0.63998890      -0.20905547       1.97158539
H        1.20428813      -1.58295345       0.70110375
