21
Properties=species:S:1:pos:R:3 pbc="F F F"
H        0.00000000       0.00000000       0.00000000
H        0.12529835      -0.08895500      -1.01474690
H        0.51206923       0.86938608      -1.32477593
H        0.57901597       0.73181123       0.27794573
H        1.46286428       0.78248787      -0.12739980
H        0.08585384       1.64398813      -0.91686296
H       -0.94519848       0.05067664       0.22823824
H        1.49559104      -0.03398454      -0.74838752
H       -0.89212215       1.37979627      -0.75227427
H        0.52988064       1.83874667      -0.01230055
H        1.09241438      -0.76671624      -0.36252394
H       -0.99805468       0.94535673       0.72831595
H        1.37489247       1.28252530       0.16060601
H       -0.80632544      -0.14237091      -1.44200301
H       -1.09521639       0.52215385      -1.27813184
H        1.23602104      -0.74890381       0.65353894
H       -0.16569179       1.66396332       0.56559879
H        2.12364674      -0.31741422       0.93507236
H       -0.04050756       1.27770889       0.88946640
H        0.42686468      -0.31741422       1.11441493
H       -1.68268621       0.17506337      -0.58353239
