21
Properties=species:S:1:pos:R:3 pbc="F F F"
H        0.00000000       0.00000000       0.00000000
H       -0.43620220       0.58582085      -0.72101700
H       -1.40170634       0.67021406      -0.62752682
H       -1.64654255       0.26085210       0.22131884
H       -0.79633152      -0.49504808       0.41726169
H       -1.86204517      -0.00562108      -1.33141768
H       -1.53643417      -0.68980664      -0.26658121
H       -0.23637831       0.17645890      -1.58157158
H       -2.51679301      -0.70243782      -0.95848918
H       -2.19168162      -1.59622860      -1.16705930
H        0.59118068      -0.63587439      -0.44071537
H       -1.00355411       0.49794737       0.83669627
H        0.19249156      -1.47343636      -0.00155625
H       -2.55071211      -0.58442974       0.00742203
H       -0.63198709       1.26762640       0.49337438
H        0.06377380      -2.00113344      -0.80965793
H        0.34088263      -0.48439360      -1.36940551
H       -1.14027691       1.56607819      -0.34679928
H       -2.84781361       0.30936104       0.25426146
H       -1.88282537      -2.01559687      -0.22214365
H       -0.92467988      -2.13360500      -0.09528852
