21
Properties=species:S:1:pos:R:3 pbc="F F F"
H        0.00000000       0.00000000       0.00000000
H        0.88292891      -0.28314662      -0.29719594
H        1.10464609      -0.92601418       0.47149560
H       -0.70382327      -0.52769721      -0.41740784
H       -0.28025523      -1.05539441      -1.11754119
H        0.58804977      -0.84162098       1.29251146
H        0.59713411       0.09702432       1.55120707
H        1.36302817       0.62472153       1.26310480
H       -0.38976312      -1.04636717       0.88497233
H        0.98455167       1.31021571       0.68438721
H        0.01904750       1.39460897       0.77787739
H       -0.26263613       0.47547853       1.29502642
H       -1.23455453      -1.14241171       0.21010640
H        1.19736350       1.05957210      -0.23210055
H       -0.85485870      -0.13442153       0.82031041
H       -0.33616301       1.21982563      -0.05375600
H       -1.19554496       0.26448965      -0.06180447
H       -0.06445178      -1.90087211      -0.82269526
H       -0.65625423       1.05909979      -0.22249386
H        0.41756821      -0.77819467      -1.06641018
H       -0.63979286      -1.82790589      -0.14262164
