21
Properties=species:S:1:pos:R:3 pbc="F F F"
H        0.00000000       0.00000000       0.00000000
H       -0.33100656      -0.58582085      -0.77496612
H       -0.12038140      -0.15433127      -1.68203712
H        0.75119776      -0.58582085      -2.00989437
H        1.06620145      -1.24690342      -1.36817527
H        0.28546336      -1.40229321      -0.69334763
H        0.77871770      -0.36585209       0.55953091
H        0.70503330      -1.38448071       0.24311793
H        1.50397801       0.11099589      -2.04294538
H        2.20966291      -0.28791529      -1.41349912
H        0.30630979       0.87984765      -0.28302526
H        1.63803422      -1.40137970      -0.03488305
H        1.26634657       0.86294866      -0.12145583
H        0.07058768       0.76409936      -1.42112160
H        2.32617617       0.42116463      -0.75646693
H       -0.13146651       0.88210744      -0.47597134
H        1.54908228       0.71146786      -1.04078972
H        0.98992383       0.84849256      -1.73057234
H        1.33014560       0.01747096       0.23831485
H        2.29469204       0.04271042       0.14010549
H        1.91066360      -1.11964631      -1.00498497
