21
Properties=species:S:1:pos:R:3 pbc="F F F"
H        0.00000000       0.00000000       0.00000000
H        0.45934626      -0.55622131       0.73002923
H       -0.39868912       0.83756196       0.43915913
H        0.38384387       1.24692392       0.84919059
H        0.68760806       0.26784137      -0.55117512
H        0.06416750      -0.43821320       1.61205459
H       -0.76070803       0.08773836       1.30176568
H        1.39844286      -0.30557773       0.78778851
H       -0.80545926       0.73231149       1.19916928
H        1.20835900       0.74794424       0.98795241
H        0.53808820       1.27376437      -0.68932903
H       -0.83996373      -0.08704498       0.40092874
H        1.41495514      -0.05493414      -0.15293777
H       -0.50306916       1.34545064       1.64429080
H       -0.31319898       1.50337791      -0.16405612
H        0.15638548       1.83277047       0.94303030
H       -0.67842615       0.79429799      -0.72251445
H        1.88427114       0.85665852      -0.10749373
H       -1.00032532       0.14160150      -0.24867547
H        0.60066587       0.33007202       2.24638748
H        1.11136818       1.55498552      -0.10075456
