21
Properties=species:S:1:pos:R:3 pbc="F F F"
H        0.00000000       0.00000000       0.00000000
H       -0.67230010      -0.60990006       0.35227177
H       -1.41321456       0.00481451       0.70793402
H       -0.26529357      -1.16612136       1.11272395
H       -1.20712733       0.97288996       0.43649003
H       -0.86044335      -0.97136277       1.92585969
H        0.66743827      -0.91547775       1.23621440
H       -1.08555520       1.41266644       1.29665160
H       -0.16521561      -0.68821615       2.54597855
H        0.94876277      -0.16181707       0.68765903
H        0.73278624      -0.63233113       2.16552520
H       -1.37733221      -0.08414049       1.72975755
H       -0.20174980       1.90771449       1.13191175
H        0.89801031      -0.15966894       0.47053924
H        0.15097106      -0.01872592       1.06816876
H       -0.30776846       0.91947407      -0.05506298
H        0.82746732       0.46830833       1.92037404
H       -0.99430060       0.75342149       2.18263793
H        0.46916634       1.41266644       1.73034537
H        0.25073385       1.31838524       0.70800245
H        0.81003785       0.46830833       1.91433644
