21
Properties=species:S:1:pos:R:3 pbc="F F F"
H        0.00000000       0.00000000       0.00000000
H        0.68725604      -0.43977645       0.53135377
H        1.32653809       0.29203478       0.59325570
H        1.00363266       1.06663692       0.09951025
H        2.20419502      -0.00641704       0.15283692
H        2.34561324       0.48863104      -0.73499870
H        2.03631592      -0.93551475      -0.08518617
H        1.15081501      -1.18718493       0.00237602
H        1.67835593       1.19771099      -0.74085420
H        2.21279120      -0.98345208      -0.98790228
H       -0.06833506      -0.58319080      -0.77671087
H        1.34118795      -1.34930420      -1.38763213
H        0.25213102       0.90665692      -0.24992818
H        2.30236053      -0.12608352      -1.55571747
H        0.27011839       0.96007282      -1.27469516
H        0.05443968       0.00440753      -1.58048987
H        1.47989714       0.10353002      -2.12506390
H        0.65979809      -1.38194346      -0.87756455
H        1.19510531       0.93351912      -1.60687697
H        0.75442243      -0.61901784      -2.05481577
H        0.97401917      -0.65248746      -2.04562712
