21
Properties=species:S:1:pos:R:3 pbc="F F F"
H        0.00000000       0.00000000       0.00000000
H        0.59380746      -0.49897972      -0.58861941
H        0.40188801      -0.26936617      -1.57033646
H        0.24331933      -0.22961354       0.97025621
H       -0.42912245       0.31645468      -1.43048143
H        1.14702415       0.42745057      -1.68232930
H       -0.79310381       0.19844657      -0.53513092
H       -0.98217034       1.10510349      -0.23465136
H       -0.09434631       1.17410302      -1.45697665
H        1.83594608       0.48086649      -0.92347664
H       -0.15580797       1.43745565       0.27524194
H        1.66978955       1.29452729      -0.41513711
H        0.56660056       0.80158126       0.42306137
H       -0.69751567      -0.48025712       0.96199995
H       -0.26541466       1.70180023      -0.65676904
H        1.36167336       1.03033543       0.52751392
H        1.01226234       1.88034821      -0.94220036
H       -1.18854332      -0.10180292       0.21118367
H       -0.82956600       0.04547957       1.70664847
H       -1.51815140       0.63092875       0.66151762
H        0.48103100       0.44113767       1.55499864
