21
Properties=species:S:1:pos:R:3 pbc="F F F"
H        0.00000000       0.00000000       0.00000000
H        0.87747955       0.49504808      -0.19565487
H        1.32394314      -0.06117323      -0.93363321
H        0.25309512      -0.92909771       0.14415693
H        1.47262931       0.30028951       0.61748087
H        0.93542081       0.11551854       1.40825748
H        1.23931110      -0.84014678       1.62661123
H        1.19780326      -1.32800889       0.10267930
H        0.36373448      -1.36609840       1.52628946
H        1.96053445      -1.13859856       0.96021253
H        1.63501239      -0.64251471      -0.43305069
H        0.55067486      -0.55622131      -1.39222598
H       -0.39429027      -0.84014684       1.07673705
H        2.12798882      -0.38520467       0.39688531
H       -0.22468010      -1.30755186       0.90347522
H        0.73883265      -1.50328326      -1.26680136
H       -0.52942657       0.41936818       0.84140670
H       -0.23981267      -0.20913082      -0.94198334
H        1.60211992      -1.95507097       0.45204353
H        0.02631855       1.19397032       1.03939629
H        0.71582597       1.33726299       0.44577640
