21
Properties=species:S:1:pos:R:3 pbc="F F F"
H        0.00000000       0.00000000       0.00000000
H        0.13252793       0.60990006       0.74734145
H       -0.52155960       0.55622131      -0.68696243
H       -1.48507464       0.78583485      -0.41818705
H       -1.88711369       0.14296728       0.27348468
H       -0.71205920      -0.67024595       0.31155407
H       -1.70598280       1.71324182      -0.03813460
H       -0.92176622       2.24093914      -0.27180314
H       -0.11029515       1.43606901      -0.61774868
H       -0.48455706       1.55544496      -0.80753314
H       -1.03684843      -0.32669374       0.20619196
H       -0.54228425       2.43569779       0.66167766
H       -0.47879940       1.31897998       1.01482129
H       -1.80762231       0.66870397       1.02556169
H       -1.85677207       1.76939702       1.02874720
H        0.40331125       2.06984568       0.82081670
H       -0.96874809       2.07770061       1.39537001
H        0.48404798       1.75453711      -0.09685600
H       -1.95688999       0.88148934       1.25220692
H        0.44807887       1.29539418       0.13204789
H       -1.08301449       0.70759326       1.13845599
