21
Properties=species:S:1:pos:R:3 pbc="F F F"
H        0.00000000       0.00000000       0.00000000
H        0.42330277      -0.73181123      -0.48304045
H        0.23940882      -1.54547203       0.01915479
H        0.12201956      -0.78522712      -1.46268284
H       -0.39996752      -1.59888792      -1.57907236
H       -0.56213737       0.46966103      -0.64146781
H       -0.42333582      -0.37845421       0.79096156
H       -0.61509717       0.00051004      -1.52102053
H       -0.45985103      -1.34769046       0.70547068
H       -1.46391368       0.38526782      -0.28406298
H       -1.39496636      -1.74660158       0.56492430
H       -1.56333995      -0.36534205      -1.66354001
H       -2.02384853      -0.95220256       0.40133539
H       -2.11356592      -0.08219543      -0.91178203
H       -2.44048429      -0.91392648      -0.52524763
H       -1.44274998      -0.11464059       0.52023995
H       -0.30593792      -2.10169339      -0.64908069
H       -1.40993512      -2.21626258      -0.28786832
H       -2.06746984      -1.68852854      -0.98231733
H       -1.56325555      -1.37321997      -1.75329685
H       -0.57386243      -2.16832519      -0.67130327
