21
Properties=species:S:1:pos:R:3 pbc="F F F"
H        0.00000000       0.00000000       0.00000000
H       -0.30729049       0.46966103      -0.79564559
H       -1.15517902       0.02988458      -0.98470259
H       -1.56568933      -0.25326204      -0.14841902
H       -1.70860720       0.72670132      -1.49606133
H       -0.61322582      -0.81647241       0.10320298
H       -0.64624524      -1.06711602       1.04349458
H        0.09145206      -0.53941882       1.39761233
H       -0.33203074       0.69681674       0.67640668
H        0.93212980      -0.45046383       0.81565702
H       -0.52830261       1.42532635      -0.49368316
H       -1.11265063       1.54317379      -1.67363513
H        0.22182606      -0.82256544       2.32005024
H       -1.55291891       2.31777596      -1.28093112
H       -1.50323963       1.68951821      -0.67540956
H       -1.56026459      -0.70126390       1.33339930
H        0.87048692      -1.19787240       0.11501116
H       -1.16771150       0.39836493       1.19204998
H       -0.65639895       1.52910495       0.45186427
H       -2.43425202       0.77737796      -0.84881133
H       -1.94094110       2.53561449      -0.41487908
