21
Properties=species:S:1:pos:R:3 pbc="F F F"
H        0.00000000       0.00000000       0.00000000
H        0.15274149      -0.33235219      -0.95892441
H        0.25836679       0.93864530       0.01589089
H       -0.69573325       0.05226156      -1.50324988
H       -0.88704765      -0.01598554       0.24744456
H        0.90117186       0.13730884      -1.36798596
H       -1.27626646      -0.48564658      -0.51149422
H       -1.95464540       0.12425348      -0.85191280
H       -1.19638300       0.80592227      -1.14351892
H       -1.17344868       0.90244508       0.39751294
H        0.54380232       1.27099752      -0.91222143
H       -0.65901887       1.24569869      -0.46095222
H       -0.56324089      -0.73629016      -1.12536168
H        0.46225610       0.28878963      -2.22382903
H       -0.07574201       1.96781421      -1.34109807
H        0.56734455       0.40615314      -1.35893250
H       -2.10507250       0.84902918      -0.02974319
H       -1.90898669       1.54584599      -0.75728744
H       -0.35455397       0.99340719      -2.20232058
H       -0.44275802       1.21695423      -1.36781359
H       -2.12798762      -0.12431127      -0.01773618
