21
Properties=species:S:1:pos:R:3 pbc="F F F"
H        0.00000000       0.00000000       0.00000000
H       -0.26684549      -0.92909771       0.11675546
H        0.40221074      -1.29494977       0.80366153
H        0.57041305      -0.60945559       1.47438240
H        1.28642631      -1.48970830       0.32038528
H        0.01092809      -1.28709495      -0.68512839
H        0.74872416      -1.89699507      -0.50697172
H        1.49691582      -1.53114295      -1.10670948
H        1.85738504      -0.71510619       0.17186375
H        2.17771220      -1.20281410      -0.58034998
H        1.53762245      -0.62635458       1.36356175
H        0.90844220       0.31530851       0.15288633
H        1.45757020       0.14973819      -0.02876806
H        0.09270146      -0.57801503      -1.34738195
H       -0.01768445       0.19475858      -1.00751185
H        0.82692462       0.72071016      -1.25917518
H        1.76476455       0.31229073       1.23941505
H        2.19966078      -0.32296646      -0.99681997
H        0.98303092      -0.94795215      -1.69311523
H        1.91756058      -1.20954537       0.68268257
H        1.33330870       0.91546875      -0.38798732
