21
Properties=species:S:1:pos:R:3 pbc="F F F"
H        0.00000000       0.00000000       0.00000000
H        0.44047090       0.80291802      -0.09821343
H       -0.50332171       0.05067664      -0.83196157
H        0.58993709      -0.77460212      -0.00517706
H        0.09429914       1.32886958      -0.90868485
H        1.39889717       0.50446618      -0.31191730
H       -0.42711610       0.86714906      -1.44912398
H       -0.27034003      -0.78688532      -1.37742770
H        0.29563236      -0.48843351      -2.17987752
H        0.92787778       1.48853850      -1.48572588
H        1.53041577      -0.50791347      -0.41734046
H        0.45416129       0.47202936      -2.15888882
H        0.25974730      -1.44484806      -0.70878845
H        1.74113178      -0.79106009      -1.32480264
H       -0.00673261       0.55184054      -2.26883078
H        1.69606757       1.15618634      -0.89179796
H        0.88812977      -1.05525196      -1.83068204
H        0.75219619       1.02499044      -2.38438201
H        1.81211984       0.01185793      -1.77047205
H        2.04649520       0.38481784      -1.47103453
H        1.05057836      -1.59632885      -1.25623763
