21
Properties=species:S:1:pos:R:3 pbc="F F F"
H        0.00000000       0.00000000       0.00000000
H       -0.19310522      -0.77460212      -0.55746114
H       -0.51846963      -0.01689900       0.82399309
H        0.21671444      -1.63944650      -0.37814879
H        0.88872004      -0.11162928       0.21460050
H        1.47117925      -0.42693779      -0.49911016
H        0.17218506      -0.20166998       1.48498988
H        1.01390219      -1.44468796       0.23819906
H        0.98301709      -0.49008349       1.10675597
H        1.66027820      -0.97502697      -0.31828755
H        0.70287108      -0.58660674      -1.16057229
H        1.73751700      -1.50097847      -1.19620156
H        0.76534474      -0.80182040       0.99863601
H       -0.53055876      -1.77021217       0.38906068
H        0.16140836      -2.03440404       1.09948874
H        0.84410405      -1.57598948      -1.39402211
H       -0.88065791      -0.66959548       0.38018903
H        0.14323956      -2.19185257      -0.85214674
H        1.06165147      -2.18588495       0.76084912
H        1.59947920      -1.84834468       1.35327041
H        0.73806262      -2.85293531      -0.45564175
