21
Properties=species:S:1:pos:R:3 pbc="F F F"
H        0.00000000       0.00000000       0.00000000
H        0.41703188       0.87984765      -0.00365971
H        0.69151276      -0.55622131      -0.51551127
H       -0.81941164       0.01689900      -0.52568042
H        1.25032306       0.07965308      -0.99660969
H        0.96028018       1.04772854      -0.81764340
H       -1.05689251       0.93532962      -0.74510896
H       -0.74555659      -0.56892186      -1.36513448
H       -0.37170720       1.46566844      -0.30035543
H        0.15729731      -0.96558326      -1.21914303
H        1.19651330      -0.00930192      -2.01764607
H       -1.03982759       0.98600626      -1.71732378
H       -0.04892719       1.88167310      -1.05606103
H       -0.81758547       0.04579270      -2.18382978
H        0.96391642       1.72200418      -1.10053015
H       -0.55314147       1.56636453      -1.82704055
H        1.04901731       1.38965201      -2.06780672
H        0.55944157      -0.69774187      -2.00328517
H        1.20571506       0.37727237      -2.00570202
H        0.09295142       0.17017961      -2.64074802
H        0.12817377       1.07131648      -2.41360760
