21
Properties=species:S:1:pos:R:3 pbc="F F F"
H        0.00000000       0.00000000       0.00000000
H       -0.33764970       0.29845181       0.92208624
H       -1.21698689      -0.11091015       1.00723279
H        0.35210317       0.28063935       1.68185425
H       -1.22686255      -0.90552032       0.44459784
H       -0.38957310      -1.31488228       0.16276425
H        0.20532191      -0.99957377       0.86614293
H       -1.65857744      -1.63733149       0.92013502
H       -0.32470950      -2.28411865       0.22935833
H       -1.23028767      -2.56726527       0.44802940
H       -1.81942952      -1.32202291       1.82720065
H       -1.14063656      -3.03692627       1.29622865
H       -0.21801391      -0.62111956       1.65710449
H       -1.14602387      -0.66094029       2.06710792
H       -0.73783344      -0.39891118      -0.59143531
H       -1.35287583      -0.44326234       1.96869016
H        0.11485696      -0.08798110       0.40339163
H        0.30321476      -2.33479524       0.97178948
H        1.09353983       0.17538889       1.24213946
H       -1.66115427      -2.51097465       2.00739694
H       -0.99899858      -2.29313612       2.68721819
