21
Properties=species:S:1:pos:R:3 pbc="F F F"
H        0.00000000       0.00000000       0.00000000
H        0.52815789      -0.26419187       0.83939010
H       -0.27763951       0.92909771       0.08806052
H        0.25966018       1.27618814       0.82215732
H       -0.77378875      -0.49917299       0.02037562
H       -1.23578501       1.04710579       0.21491557
H       -1.42837119       1.36241436       1.11577737
H       -1.53252697       0.11072707       0.04035492
H       -1.75989223       0.58781224       1.60377979
H       -0.74421483      -1.08499384       0.86255324
H        0.10774374      -0.93351305       1.30896235
H       -0.60374838       1.58025289       1.58546281
H       -1.14643145       0.32362038       2.38300538
H       -1.79369378      -0.14399898       0.96239781
H       -0.07980581      -0.55505884       2.18626404
H        0.59050286       0.57337010       1.42924333
H       -0.71120894      -0.58797228       2.20161057
H       -0.49689734       1.55933475       1.36576533
H        0.21136351       0.37403888       2.19393110
H       -1.23213434      -0.82949317       1.36589432
H       -0.36994445       0.99386632       2.34891343
