21
Properties=species:S:1:pos:R:3 pbc="F F F"
H        0.00000000       0.00000000       0.00000000
H        0.80713278      -0.08439321       0.53802919
H        1.46078146      -0.64061451      -0.02471870
H       -0.61492032       0.52595156       0.63132554
H       -0.18593267       0.50905257       1.50525057
H        1.23508525       0.81028688       0.80209017
H        0.88674563       1.47136950       0.17783844
H        0.40291438      -0.26554954       1.54146767
H        0.26784176       0.52769721      -0.77321243
H        1.19566524       0.77834082      -0.61706436
H       -0.08234078       1.55576277       0.13529043
H       -0.66578144       1.44438219       0.31201500
H        1.74867463      -0.01605821      -0.27583903
H       -0.44709632       1.93943024       1.18404031
H        0.21159843       1.38890028       1.63133788
H        2.19287777       0.36855555       0.62908256
H        2.24108958      -0.42860919       0.97019702
H        1.00121343       0.26018715       2.00404406
H        1.14347529       1.43957686       1.35367179
H       -0.34437352       1.25950837      -0.57903260
H        1.78607810       0.71380442       1.41894054
