21
Properties=species:S:1:pos:R:3 pbc="F F F"
H        0.00000000       0.00000000       0.00000000
H       -0.92830116      -0.43148959      -0.07346868
H        0.55375272      -0.58319080      -0.54891467
H        0.90170640      -1.21906519       0.10120296
H        0.31881359      -0.01781246       0.97537917
H        0.44231299      -1.20216620       0.95953447
H       -0.46825531      -0.95152259       0.72267151
H       -1.01866424      -1.06736398      -0.80528778
H        1.28679967      -0.35016465       0.89876968
H       -0.14958578      -1.01668739      -1.24140179
H        0.52303463      -2.13126397       1.23939586
H        1.24121833      -1.14456367       1.54697978
H       -1.20093417      -1.96115470      -0.46473435
H       -1.02738953      -1.72612476       0.53446555
H       -0.35595343      -0.48747349       1.49707723
H        0.55816203      -0.69094640       2.24825907
H        0.20703730      -2.03440762      -1.20686984
H       -0.33012062      -2.20653367       1.38297784
H       -0.34597933      -2.38720751       0.75059241
H       -0.61819744      -1.12677145       1.56073093
H       -0.21643823      -1.05605304       2.10387516
