21
Properties=species:S:1:pos:R:3 pbc="F F F"
H        0.00000000       0.00000000       0.00000000
H        0.36925858       0.05341591      -0.95609558
H       -0.47004125      -0.91159266      -0.03720055
H       -0.77296597       0.58319080       0.10233795
H       -1.28185999      -0.92940509       0.59045935
H       -1.31584597      -0.01097447       0.91200411
H       -2.00187707      -1.08907402      -0.12326682
H       -1.51344061       0.36535230      -0.49121451
H       -2.53616810      -0.27541322      -0.14672501
H       -0.64293462       0.54480433       0.48030844
H       -0.39433157      -1.44435227      -0.65034628
H       -0.80484742      -0.34063700       0.23628324
H       -0.83081502      -0.34063700       0.26070279
H       -0.75566870       0.35825270      -1.16577983
H       -0.76539165       0.31835461      -1.16759217
H       -0.76539165       0.31835461      -1.16759217
H       -2.13186812      -0.44557360      -0.13897312
H       -2.13186812      -0.44557360      -0.13897312
H       -2.11912537      -0.44557360      -0.11748660
H       -1.58481753       0.68079436      -0.93932533
H       -1.57404661      -0.28088608       0.37066144
