21
Properties=species:S:1:pos:R:3 pbc="F F F"
H        0.00000000       0.00000000       0.00000000
H       -0.53245163       0.67024595      -0.56620628
H       -1.42873311       0.33789375      -0.93976426
H       -0.02852273       0.68714494      -1.39917135
H       -1.29723728      -0.52695060      -1.36733162
H       -0.38783330      -0.87404108      -1.34338486
H       -0.37128592      -1.78563380      -0.87216425
H       -1.37705255      -1.98039234      -0.81030458
H       -0.62338656      -0.68549418       0.29924518
H       -0.58963925       0.67024595      -2.19473624
H       -0.39669502      -1.56218362      -0.18381855
H        0.08166736      -0.26414102      -0.74701917
H       -1.55161548      -0.42130232      -0.04992169
H       -0.06967878       0.06034589      -2.74765921
H        0.54228699      -0.85375524      -0.30617940
H        0.69684643      -0.25496262      -2.23669863
H       -1.46873057       0.27133477      -1.84632230
H       -1.61828685      -2.24458408       0.15163749
H        0.86770272       0.19209686      -1.47010148
H       -1.89995503      -1.08238494      -0.67417341
H       -0.60940528      -2.37534976       0.51106143
