21
Properties=species:S:1:pos:R:3 pbc="F F F"
H        0.00000000       0.00000000       0.00000000
H       -0.37664786      -0.36585209      -0.88182342
H       -0.50186598       0.83173102       0.06644528
H       -0.80433029       0.84863001       0.99180502
H       -0.27490327      -0.55577880       0.75073230
H       -1.19853354      -0.18992671       1.00838172
H       -0.32522362       0.07402790       1.33605683
H       -1.23077381       0.98321182      -0.56109583
H       -1.50582409      -0.65958774       0.21273613
H       -2.17483592       0.81535470      -0.06642628
H       -2.61005831      -0.09623796      -0.24782109
H       -0.94023359       0.36595914      -1.18985653
H       -0.80747855      -1.19758308      -0.61598635
H       -0.65703422      -0.97334480      -0.37483472
H       -2.36425090      -0.75732058       0.42345339
H       -1.72430646      -0.10604867      -1.08604813
H       -1.98254526       0.76741737       0.83305365
H       -1.09598470       1.26246548       0.98225737
H       -2.49184895       0.41438648      -0.53454721
H       -1.52597797      -1.10430300      -0.95384371
H       -2.12961745      -0.23850566       0.97381037
