21
Properties=species:S:1:pos:R:3 pbc="F F F"
H        0.00000000       0.00000000       0.00000000
H        0.05110265      -0.33235219      -0.96966726
H        0.67273659      -1.14882457      -0.95329815
H        1.33976853      -0.96405363      -0.26847041
H        1.02094841      -1.26683271      -1.85489869
H        0.76065302      -0.37215263      -2.28515196
H        0.36053926      -0.77136850       0.57299739
H        1.31403089      -0.07614595      -0.02496397
H        2.08477306      -1.24810684      -1.67586231
H        2.45182467      -0.60186845      -2.45802355
H        2.20206714      -1.10734630      -0.55872214
H        1.55179536       0.27071494      -2.40405941
H        1.69097555      -0.38402995      -3.02522373
H       -0.18869466      -1.56597865       0.45053256
H        2.30605888      -0.90101635      -0.79346687
H        0.96684539      -1.10657787      -3.10819292
H        0.43010461      -0.50717664       1.56228364
H        0.27806029       0.33246493      -1.62579954
H        2.06402946       0.42219573      -1.58997679
H        2.63644886       0.00803161      -1.72181916
H        2.60496473      -0.37042260      -0.82524675
