21
Properties=species:S:1:pos:R:3 pbc="F F F"
H        0.00000000       0.00000000       0.00000000
H       -0.12270200      -0.91159266      -0.45526573
H       -0.23278408       0.77136850       0.63570923
H       -0.13844645      -1.29004693      -1.35225260
H        0.72994041       0.78826749       0.49101329
H        0.48116127       0.60349655      -0.43204111
H       -0.94764656      -0.76234972      -1.47387409
H       -0.81658876       1.50317979       0.36796793
H        0.35851476      -0.30020595      -0.84100103
H       -0.19337761       1.85027027      -0.29475138
H        0.68948174       1.53496170      -0.55781198
H        1.65873647       1.09513652      -0.17366326
H        0.69612366       1.42748868      -0.04621674
H        1.96866751       1.84254503       0.45772189
H       -1.13054824       0.10249466      -1.06564379
H        0.33130467      -0.58134061      -1.52895641
H       -0.34216487       0.43082348      -0.72069484
H       -0.60628080      -0.11223917      -0.08610106
H       -0.71075308      -0.37325031      -0.12867546
H        0.76241279       0.20880145       1.52338982
H        0.76241279       0.20880145       1.52338982
