21
Properties=species:S:1:pos:R:3 pbc="F F F"
H        0.00000000       0.00000000       0.00000000
H        0.21426670       0.05341591       1.00227761
H       -0.06499459       0.24817449       1.97047496
H       -0.38775623       0.97998571       2.52575707
H       -0.71918827      -0.21783850      -0.61917323
H       -1.29566622       1.06437898       2.18423343
H       -0.72856790       0.27125442       0.89424962
H       -2.10915995       0.94637090       1.66234946
H       -1.49506092       0.44739118       1.09493196
H       -1.08170104       0.76630247       0.06747985
H       -2.66405845       1.10603988       0.81387007
H       -1.53517461       0.09747002      -0.19161284
H       -1.65106106       0.18319932       0.11554927
H       -2.42995501       0.40922314       1.53008652
H       -1.10574269       0.59373015       1.47955346
H       -2.27565551       0.99441063      -0.01378918
H       -2.05826950       1.33877814      -1.12577331
H       -2.09565520       1.29924738      -1.14384615
H       -2.09742785       1.33877814      -1.13271737
H       -2.05610752       1.29924738      -1.13683307
H       -0.48255438       0.83173102       0.15305455
