21
Properties=species:S:1:pos:R:3 pbc="F F F"
H        0.00000000       0.00000000       0.00000000
H        0.87909138       0.39891118       0.34841394
H        0.81080210       0.38201219       1.31955338
H        1.31450629       0.45232707      -0.57942468
H       -0.79060179      -0.55577880      -0.11882623
H       -0.26415944      -0.40429801      -0.92379391
H       -1.42832923      -1.32714725       0.10837029
H        2.22827005       0.36793387      -0.25388739
H       -0.64782882      -1.55676079      -0.51726580
H        2.25761271       0.86691356       0.58170772
H        0.70431089      -0.38935632       0.65099210
H        1.25725400       0.92032945       0.35865384
H       -0.76513082      -1.69225383      -0.31709427
H        2.49557853      -0.62144893      -0.19919065
H        3.20803046      -0.53705573      -0.85748470
H        3.45287490      -0.28641215      -1.76593947
H        2.82960868       0.35673505      -0.78005189
H        3.02530265       1.10558677      -1.03780651
H        3.04595327       0.81349766       1.23668110
H        3.54787111       0.33098465      -0.76399124
H        3.52753019       0.78338993      -1.64729130
