21
Properties=species:S:1:pos:R:3 pbc="F F F"
H        0.00000000       0.00000000       0.00000000
H       -0.53245163       0.67024595      -0.56620628
H       -1.09842396       0.37179413      -1.36865604
H       -0.75455576      -0.20960170      -0.21322078
H       -0.81306636      -0.55730355      -1.31026614
H       -0.77575088      -1.46396041      -0.95721984
H       -0.67897993      -2.14945459      -0.27253455
H       -0.64485538      -2.09877801       0.69923103
H        0.58722961      -0.96660632       0.03611766
H       -1.32879341      -1.17620802      -0.34126079
H        0.29791778      -1.39809585       0.92123872
H       -1.44550514      -1.83414602       0.23842591
H       -0.36543065      -1.33245838      -0.07303615
H       -0.10048676      -1.40196133       1.22022343
H       -0.77616119      -0.31591493      -0.25931573
H        0.51244915      -0.92988181      -1.75643778
H        0.51244915      -0.92988181      -1.75643778
H        0.51244915      -0.92988181      -1.75643778
H        0.51244915      -0.92988181      -1.75643778
H        0.51244915      -0.92988181      -1.75643778
H        0.51244915      -0.92988181      -1.75643778
