21
Properties=species:S:1:pos:R:3 pbc="F F F"
H        0.00000000       0.00000000       0.00000000
H        0.83968246      -0.37845421      -0.31585881
H        0.53013474      -0.83756196      -0.26602799
H        0.62593514      -1.16104484      -0.71426880
H       -0.70049775       0.41806409      -0.00614718
H       -0.58709008       0.79385900       0.30355731
H        0.42016935      -1.50813532      -1.60041189
H       -0.05822009      -0.60792208      -1.10925961
H        0.67057317      -1.93524051      -1.53056109
H       -0.52920008      -0.21442229      -1.64670563
H        0.41157633       0.11464000      -1.11086178
H        0.41985059       0.78039443      -1.58225858
H       -0.11481929      -0.09548151      -1.10535157
H       -1.51734805      -1.15964103      -1.17236352
H        0.25433001      -1.10350943      -1.81870353
H       -1.44549513      -0.82293332      -0.70596504
H       -1.39718843      -0.86814404      -0.69060975
H        0.16334996      -0.32024503      -1.63945150
H        0.05254495      -0.24213123      -1.89848423
H       -0.18875855       0.04140526      -2.18555021
H       -0.27135891      -0.01626098      -1.99218583
