21
Properties=species:S:1:pos:R:3 pbc="F F F"
H        0.00000000       0.00000000       0.00000000
H       -0.06381270       0.34709048       0.90747839
H        0.87053531       0.26269728       1.16811728
H        1.75769603       0.64115149       1.03477848
H        1.27024209       0.01205370       0.31637019
H        2.34138131       1.25586605       0.45619279
H        1.87413096       0.89001393      -0.38115621
H        1.36593604       0.03237152      -0.13720666
H        1.72063613       1.53288150      -1.16632152
H        0.59663182      -0.75366068      -0.15519980
H        2.24431896       2.02554512      -0.04030579
H        0.30686951       0.76597738       0.24318665
H        0.75113344       1.39742279      -0.02028751
H        1.59823394       2.37263560      -0.68074578
H        1.67454290       1.48158026      -0.40583646
H        1.23806882       2.29763603      -0.50296855
H        0.99526733       2.34302855      -0.59186363
H        0.89175987       1.25202322      -0.47754359
H        3.25188947       2.07896113      -0.22811519
H        1.02197826      -0.55937231       0.57657027
H        3.49229622       2.22436070       0.18548302
