21
Properties=species:S:1:pos:R:3 pbc="F F F"
H        0.00000000       0.00000000       0.00000000
H       -0.46163812      -0.66108263       0.54582143
H        0.78960848       0.40936196      -0.39623502
H       -0.28592896      -1.52592707       0.13444406
H        0.52704090      -2.05362415       0.04129583
H        1.32887197      -1.67516994      -0.36107260
H        0.36723897      -0.16210291       0.65556186
H        1.72412896      -0.79532230      -0.49411708
H        0.85011047      -0.14685935       0.46416095
H        1.21395254      -0.18542224       0.06784624
H        0.32887506      -1.16082048      -0.35837260
H        0.76464456      -0.50403380      -1.01853240
H        1.26108885      -0.09467185      -0.28776097
H        0.50892913      -0.13991168      -0.79044312
H        0.74232107      -0.83760798      -0.44923031
H        1.27628481      -0.60780466       0.01099822
H        1.30941415      -0.68872774       0.19302493
H        0.97718513      -2.55185938      -0.76239049
H        1.03903735      -2.56984997      -0.77200735
H        2.01179075      -1.98473716      -0.79918826
H        2.74189186      -1.48968911      -0.27458978
