21
Properties=species:S:1:pos:R:3 pbc="F F F"
H        0.00000000       0.00000000       0.00000000
H        0.46564069       0.84879911      -0.10382564
H        0.00000000       0.15148079       0.96182871
H        0.11620258      -0.90665692      -0.33545655
H        1.09292674       1.31234717      -0.77087826
H        0.76265371       0.66402817       0.80485684
H       -0.02468380      -0.59592772       1.66474771
H        1.01016843      -1.12449539      -0.01697245
H        1.16681397      -0.74604118       0.86637092
H        1.50946641       1.43673408       0.15882409
H        0.92813468      -0.54251182       2.04238224
H        0.81192410       0.16061574       0.87571597
H        0.56363583      -0.84605819      -0.12067463
H        1.28890228       0.85198855       1.03834176
H        1.25758231       0.22148907      -1.02264833
H        1.63180280       0.58556837       0.03755657
H        2.06865263       0.68503714      -0.59766382
H        1.38207984       0.37024349      -1.05750513
H        0.62910622       0.17742467       0.49414518
H        0.29463232      -0.56999594       0.16724426
H        0.22632450      -0.45475268       0.30860633
