10
Properties=species:S:1:pos:R:3 pbc="F F F"
H        0.00000000       0.00000000       0.00000000
H        0.45279220       0.75366068      -0.41837266
H        0.97017252       0.22596347      -1.05233967
H        0.92973906      -0.21783850       0.19024345
H        0.91570824       0.33794031      -0.60911500
H       -0.56164193      -0.70907992      -0.36031240
H        0.09822959      -1.41815984      -0.45949003
H        0.75105870      -0.80825979      -0.84665537
H        0.85762155      -0.64859086       0.16154802
H        0.09050971      -1.03740871      -0.92177147
