21
Properties=species:S:1:pos:R:3 pbc="F F F"
H        0.00000000       0.00000000       0.00000000
H       -0.51304650      -0.77136850      -0.44169885
H       -0.33415017      -1.71843040      -0.30338469
H        0.26113477      -1.92317665       0.57288134
H        0.59382695      -0.40936196       0.65410495
H        0.44221148      -1.90320134       0.25445327
H        0.06368489       0.96923625      -0.06772216
H        1.34194815      -0.09405345       1.19165134
H        1.46509039      -0.92578447       1.68269145
H        0.06501216      -0.43382826       0.11153692
H        1.89979482      -0.61047596       2.49489450
H        2.57092762       0.16089255       2.58375025
H        1.62898815      -0.11714453       1.41177809
H       -0.33230165       1.04702365      -0.36292341
H        1.65359926       0.33162773       2.17062259
H        2.82432389       0.05564208       1.75981593
H        3.67327738       0.52530313       1.84202039
H        3.40376711      -0.36848766       2.11872101
H        2.93381453       0.10641626       2.02057934
H       -1.14511597       1.20669258      -0.96886277
H       -1.72626686       0.67899537      -1.54493594
