21
Properties=species:S:1:pos:R:3 pbc="F F F"
H        0.00000000       0.00000000       0.00000000
H        0.52691501       0.55577880      -0.60127473
H       -0.03473860       0.57359123      -1.46008301
H       -0.91410410      -0.21783850       0.25499207
H       -1.51579428       0.44324413      -0.13101268
H       -1.76220179      -0.09983040      -0.20854369
H        0.06127435       1.40457797      -0.70510042
H        0.82253939       0.64497632      -0.79232442
H       -2.30903530      -0.27461374      -0.92879498
H       -0.16995460       2.54617357      -0.91875225
H       -1.84870982       0.49998838      -1.29778409
H       -0.42229515       0.59414405      -2.57889128
H       -1.04950523       1.05576718      -1.27673912
H        0.01159286       1.41061640      -2.13342762
H       -1.75781131       0.33677298      -1.20540571
H       -1.17906666       1.45914257      -2.32601166
H       -1.18070424       1.42220676      -2.33927369
H       -1.17906666       1.45914257      -2.32601166
H       -1.17906666       1.45914257      -2.32601166
H       -1.17906666       1.45914257      -2.32601166
H       -1.17906666       1.45914257      -2.32601166
