21
Properties=species:S:1:pos:R:3 pbc="F F F"
H        0.00000000       0.00000000       0.00000000
H        0.54069358       0.79439902       0.36042264
H        0.35641372       1.63196099       0.92420864
H       -0.15666509       2.07173753       1.62521338
H        0.30416960       0.84507567       1.30358183
H       -0.76026082      -0.12438690       0.67812628
H       -0.01070517       0.34609595       2.07813597
H       -0.28097028       0.34527412       1.38364732
H       -0.13798140       1.16508055       1.27069247
H        0.25360063       1.34604001       1.38190210
H       -0.77948761       1.17016184       2.17991996
H       -0.78258604       1.17016184       2.15287757
H       -0.74883890       1.19657922       1.96719563
H        1.28485966       1.09285080      -0.28025463
H        0.00027562       0.84516615       2.04970407
H       -0.27493519       0.82552677       3.14713025
H       -0.27493519       0.82552677       3.14713025
H       -0.27493519       0.82552677       3.14713025
H       -0.27493519       0.82552677       3.14713025
H       -0.27493519       0.82552677       3.14713025
H       -0.27493519       0.82552677       3.14713025
