21
Properties=species:S:1:pos:R:3 pbc="F F F"
H        0.00000000       0.00000000       0.00000000
H        0.14728610      -1.02954066      -0.28719354
H        0.08508499       0.97931916       0.29498896
H       -0.41328973      -0.50184345      -0.88330698
H       -0.91151172      -0.41288847      -1.77615952
H        0.62022632       1.67613590      -0.23547694
H        0.67146182       1.69303489      -1.20766532
H        0.45344198       1.04026151      -0.95374405
H       -0.64003980      -1.10970521      -2.47906303
H       -0.09544200      -1.90431535      -2.62072730
H       -0.54220104       0.51577103      -0.37206373
H       -1.39616561       0.74049246      -1.16111326
H       -1.22708464       0.83400929      -2.22261858
H       -0.24712594      -1.46453893      -1.76536226
H       -0.78857875       0.48984888      -0.44272822
H       -0.14309895       1.12529778      -2.07910252
H        0.62299585       1.67704940      -2.12730312
H       -0.11942399       0.97115386      -2.03620481
H       -0.13125944       0.93208790      -1.95800805
H       -0.13859618       0.89290375      -1.91898179
H        0.25903815       2.04962778      -3.47770882
