5
Properties=species:S:1:pos:R:3 pbc="F F F"
H        0.00000000       0.00000000       0.00000000
H        0.87747955       0.49504808      -0.19565487
H        0.08182329       0.03149998       0.25753176
H        1.54633522       0.88854790      -0.44725469
H        0.65050310       0.27527821      -0.12810591
