21
Properties=species:S:1:pos:R:3 pbc="F F F"
H        0.00000000       0.00000000       0.00000000
H        0.50421435      -0.31530851      -0.77097952
H        0.98605675      -1.27364957      -0.65462834
H        0.03354995       0.18477097       0.95540303
H        0.90349448      -2.04825163      -0.07047421
H        0.03882837      -1.60847521       0.01325179
H        0.27371854      -0.51404792      -0.37230432
H        0.60103017      -2.03135252       0.85488552
H        0.86197799      -0.40104988       0.80098552
H        1.16351032      -0.08574137      -0.06948555
H        0.77439874      -1.42267716       0.75703722
H       -0.47039485       0.22722977       1.59551978
H       -0.23133595       1.02183986       1.08610213
H       -0.49875379       1.36893034       0.21657532
H       -0.85588861       0.47425026      -0.13743913
H       -0.97060287      -0.64773732      -0.22939223
H       -1.03172922      -0.34947252       0.63988310
H       -0.14800894       1.38582933      -0.69158399
H       -0.79677975      -0.59311503      -0.50852978
H       -1.13334036      -0.48185015       1.51956081
H       -0.40755004       0.27587587       0.37973383
