10
Properties=species:S:1:pos:R:3 pbc="F F F"
H        0.00000000       0.00000000       0.00000000
H       -0.04850490       0.68549418       0.68978679
H        0.01677762      -0.18477097      -0.95584470
H       -0.46744785      -0.20258343      -0.05111694
H        0.08817759      -0.14231217      -1.76739371
H       -0.49114561      -0.15206778       1.08460689
H       -1.07229638      -0.67976499       0.50853372
H       -0.73627096       0.55038971       0.17706889
H        0.43176517      -0.48178703      -1.89663923
H       -0.64877748       0.07727200       0.54954320
