21
Properties=species:S:1:pos:R:3 pbc="F F F"
H        0.00000000       0.00000000       0.00000000
H        0.52815789      -0.26419187       0.83939010
H       -0.53331918       0.79461014      -0.17951654
H        0.25262541       1.35038900      -0.32601523
H       -0.71355474      -0.23709527      -0.53194290
H       -1.54709959       0.95427907      -0.18841292
H       -1.39776087       1.94366193      -0.41676247
H       -0.26817465      -0.99075592      -0.10568827
H       -0.84456742       1.14905179      -0.51987678
H        0.72596782       1.22168016      -0.22915977
H        1.59878433       0.75813210       0.04767653
H       -1.37614298      -0.11017892      -0.99061656
H        0.82270300       0.17494130       0.12282482
H       -0.20806965      -1.77718854       0.10269523
H       -0.56388831      -0.58592391      -0.36261982
H       -0.03264856      -1.23079824       1.01726437
H       -1.35781348       0.36692533      -1.13906038
H       -0.02606076      -1.23079824       1.03683579
H       -1.46098363       2.74837399      -0.29863682
H       -0.63723838       1.75376439      -0.89689314
H       -0.06428689      -1.20979762       1.02729917
