21
Properties=species:S:1:pos:R:3 pbc="F F F"
H        0.00000000       0.00000000       0.00000000
H        0.50912565      -0.18477097       0.80914259
H       -0.06334901      -0.06038407       1.65183139
H        0.22248387      -0.11106071       0.72242707
H       -0.14908414      -0.04622545       2.46297956
H       -0.28773451      -0.06586483       1.34009874
H       -0.20862804      -0.02658607       1.33313894
H        0.80788177      -0.19475858      -0.60226244
H        0.78624821      -0.19475858      -0.63024342
H       -0.43906593       0.17604525      -1.02795911
H       -0.43906593       0.17604525      -1.02795911
H       -0.43906593       0.17604525      -1.02795911
H       -0.43906593       0.17604525      -1.02795911
H       -0.43906593       0.17604525      -1.02795911
H       -0.43906593       0.17604525      -1.02795911
H       -0.43906593       0.17604525      -1.02795911
H       -0.43906593       0.17604525      -1.02795911
H       -0.43906593       0.17604525      -1.02795911
H       -0.43906593       0.17604525      -1.02795911
H       -0.43906593       0.17604525      -1.02795911
H       -0.43906593       0.17604525      -1.02795911
