21
Properties=species:S:1:pos:R:3 pbc="F F F"
H        0.00000000       0.00000000       0.00000000
H        0.68725604      -0.43977645       0.53135377
H        0.63639784       0.48932126       0.81814951
H        1.20907331       1.07251203       0.28900665
H       -0.20869863       0.86777544       1.11922312
H       -0.17625403       1.62143612       0.50359029
H       -1.07568169       0.78338224       0.68416083
H        1.05651462      -0.38636053      -0.42474180
H       -1.03643560       2.14738774       0.31179225
H        0.77137101      -0.30196732      -1.35190511
H       -0.83264899      -0.28314662      -0.41783309
H       -1.65132332       1.47714186       0.78719449
H        0.31496066       0.95566529      -0.20205805
H        1.93672800       1.41549098       0.15337308
H       -2.23565698       1.63681078      -0.04128838
H       -2.47422957       0.91426289      -0.73000574
H        1.20164967       0.77961659       0.09519666
H        1.66060948       0.40803850      -0.18531841
H       -0.89425361       0.38447106      -0.24388963
H       -1.78271675       1.47048426      -1.24551702
H       -1.05563450       1.27927327       0.32459012
