21
Properties=species:S:1:pos:R:3 pbc="F F F"
H        0.00000000       0.00000000       0.00000000
H        0.17388797      -0.66108263       0.69339287
H        0.26566121      -0.63587439      -0.68785810
H       -0.16257536      -1.56773949       0.58013850
H        0.36963362      -1.51706290      -0.23364675
H       -0.94979155      -1.94619370       0.14987805
H       -0.02017161      -0.68655103      -1.61726248
H       -0.84263504      -0.91616458      -2.18660903
H       -1.61899686      -1.10093558      -1.62877119
H        0.58541906      -2.07094288      -0.79236495
H        1.03653288      -1.88617194       0.05049741
H       -0.12672377      -1.30314779      -0.69577134
H       -1.72460365      -1.27594781       0.08855698
H        0.02597742      -0.94648254       0.31041855
H       -0.41926330      -1.89277780      -0.72705436
H        0.17278767      -1.20840967       0.32445642
H        0.35806227      -1.17736912       0.61418808
H        0.48954448      -0.96660632       0.32632700
H        0.14667159      -0.89210725      -0.27532178
H       -1.38369703       0.22517416      -0.35993630
H       -1.38369703       0.22517416      -0.35993630
