21
Properties=species:S:1:pos:R:3 pbc="F F F"
H        0.00000000       0.00000000       0.00000000
H       -0.73394406      -0.63587439       0.07106813
H       -1.64194751      -0.98296487       0.12691486
H        0.15769468      -0.96046287       0.02653923
H        0.62827492      -1.62621737       0.05548234
H       -0.82944870      -1.53918624       0.41637549
H       -0.31202114      -2.35565853       0.76128912
H       -1.14178944      -2.75456977       0.30777138
H        0.47929034      -0.49569461       0.52794194
H        0.93764448      -0.48153600       1.20264435
H        1.40075636      -0.30330035       1.26395869
H        0.48547411      -2.22055411       1.07736373
H        0.98609668      -3.05228519       1.00212097
H        1.21693814      -2.83444667       1.92262053
H        0.07203397      -1.34070647       1.13210177
H       -0.86797130      -1.26418591       0.40265143
H        0.56114274      -3.28189874       0.09657383
H       -0.36003923      -2.96659017       0.08849005
H       -0.45849422      -1.28729057       0.25516933
H        1.36546576      -1.31558633       0.48304218
H        1.36546576      -1.31558633       0.48304218
