21
Properties=species:S:1:pos:R:3 pbc="F F F"
H        0.00000000       0.00000000       0.00000000
H        0.58115071      -0.52769721      -0.57607329
H        0.79851651      -1.45679498      -0.38219064
H        1.58648133      -0.50988477      -0.37036228
H        2.13296318      -0.91924673       0.32378572
H       -0.07013845      -0.70907992       0.66358662
H        1.77997422      -1.30449486       0.15804672
H        0.13998757      -0.22961354       0.99045694
H        0.77232111      -2.30727816       0.36377376
H        0.46384293      -1.92882395       1.20619559
H        0.03570046      -1.64772522       0.89981544
H        0.78828663      -1.96018767      -0.54580539
H        0.99457425      -1.31410933       1.83370996
H        0.77427250      -1.96303368       0.34922224
H        1.02688932      -1.50845075       2.29326105
H        0.87310153      -0.76828706       0.84994519
H        1.65288472      -1.00551796       0.81570864
H        0.87803423      -0.70083964       0.88989347
H        0.92207348      -1.03155160      -0.49396205
H        0.92207348      -1.03155160      -0.49396205
H        0.87656188      -1.03155160      -0.46750808
