21
Properties=species:S:1:pos:R:3 pbc="F F F"
H        0.00000000       0.00000000       0.00000000
H       -0.49101692      -0.19475858      -0.87994057
H        0.41672927       0.26878953      -0.75975811
H       -0.33800226       0.13001117      -1.45562756
H       -0.55725247       0.59566367      -2.08856487
H       -0.02841868       0.09887165       0.80927694
H       -0.37930647       0.51787621      -2.54930806
H        0.26055145      -0.07936400       1.17633045
H        0.98495638      -0.54291213       1.73640597
H        1.39555383      -0.66092020       0.86145186
H        0.80899012      -0.74531341       0.08887058
H       -0.16034341      -0.79599005       0.01215447
H        0.18952906      -1.07060933       1.92847872
H       -0.55890125      -1.54027033       1.51941705
H        1.31941879      -0.22114375      -0.00391573
H       -0.05679309      -1.45587707       0.68946153
H       -0.81607366      -0.60162503       1.48995078
H       -0.14859077      -0.14320242       2.20939732
H        0.20384467       0.78420448       1.94666255
H       -0.68037081       0.97896308       1.46338630
H        0.65008956      -0.96018243       0.78305036
