21
Properties=species:S:1:pos:R:3 pbc="F F F"
H        0.00000000       0.00000000       0.00000000
H       -0.33764970       0.29845181       0.92208624
H       -1.27848470       0.04780823       0.91382998
H        0.49753398       0.63080400       0.42677408
H       -1.10231078      -0.72356027       0.26016545
H       -0.87310964      -1.30675101      -0.48509705
H       -0.11104184      -0.75097221      -0.24338758
H       -0.77009773      -2.08135319       0.09579974
H        0.42779678      -1.11682427       0.54978895
H        0.02603242      -1.67260313       1.24098802
H       -0.17520273      -1.76604462       0.79917842
H       -0.59962863      -0.95317382       1.12498462
H        1.22512007       0.99926531       0.44593313
H        1.37666202       1.43513513       0.63842356
H       -0.61509699      -0.42284060       0.60959089
H       -0.62067032      -1.62953949       0.24921373
H        1.58443260       2.34672785       1.06168950
H        1.36904490       3.28537321       1.20526540
H        0.94493413       1.63764787       0.87114191
H        1.67739058       3.59856510       1.44366372
H        2.55277038       3.93091726       1.86387336
