21
Properties=species:S:1:pos:R:3 pbc="F F F"
H        0.00000000       0.00000000       0.00000000
H        0.69739223       0.29845181      -0.69129914
H        0.30379418       0.85467315      -1.45877695
H        1.12246513      -0.61314082      -0.48725086
H       -0.55850232      -0.39891118       0.76306552
H       -0.25697005      -0.71421969      -0.10740554
H        0.33194003       0.04101235      -1.99284148
H       -0.20498656      -1.55178165      -0.69826216
H        0.88745236      -1.16891956      -1.25141048
H        0.13744213      -0.90604955      -2.10819006
H        0.22288096      -0.50783694      -0.98801810
H       -0.67879003      -1.56045949      -0.85774553
H        0.02984083      -1.34007883      -1.68268275
H        1.09176075       2.03585052      -1.17805624
H        0.15794592      -0.89763296      -1.80118561
H        0.42132360       2.78325891      -0.96540982
H        1.12181783       3.48007560      -0.68778002
H        0.12042890      -0.24596632      -1.27051973
H        0.20343505      -0.19900918      -1.05858660
H        0.73317349       0.39842391      -0.96426576
H        1.13951838      -0.03324550      -1.45879674
