21
Properties=species:S:1:pos:R:3 pbc="F F F"
H        0.00000000       0.00000000       0.00000000
H        0.12529835      -0.08895500      -1.01474690
H        0.57455236       0.72751743      -0.58478469
H        0.42488858       0.76724488       0.17989421
H        0.47187459       1.23289740       0.84808022
H        0.18732587       0.94160891      -0.20769149
H       -0.57294488       0.13459198      -0.54930282
H        0.02906942       1.33097601      -0.18863338
H       -0.06094021       1.52418590      -0.10676545
H        0.74100554       0.93342102       1.14452994
H       -1.25865173       0.09213318      -0.98920715
H       -0.12905008       1.67272258      -0.00392580
H        0.08113700       1.57932615       0.49042678
H        0.03575240      -0.12438690       1.01812255
H        0.05274683       1.64222383       0.59283298
H       -0.51597536       0.29128850       0.96404940
H       -0.51089406       0.32906228       0.95455545
H       -0.54407871       0.32906228       0.93603796
H       -0.53801185       0.36643961       0.92560047
H       -0.49198487       0.43982518       0.91922557
H        0.08893889       1.45644438       0.10139287
