21
Properties=species:S:1:pos:R:3 pbc="F F F"
H        0.00000000       0.00000000       0.00000000
H        0.36329272       0.89468008       0.34769225
H        1.01926625      -0.08895500      -0.08066799
H        0.40571082      -0.72482938       0.32832384
H        1.97812247       0.27689707      -0.08908255
H        1.16255105       0.25181252       0.31260064
H        2.68916273       0.80459428       0.31590903
H        3.14303088       0.77857113       0.10775861
H        0.31411681       1.70895243       0.34030119
H       -0.11754173       1.82081544       0.56648159
H        3.87093496       0.72515523      -0.61378586
H        0.60556829      -0.44360828       1.12527227
H        0.50479037      -0.61902571       2.55843234
H        0.22489965       0.21853626       3.08138061
H        0.68097514       0.33654436       3.93351316
H        0.89537507      -1.28927159       3.23039794
H       -0.34049517       0.99313837       2.91291332
H        0.40984148      -0.81618655       2.51010132
H        1.22452915      -2.02644134       3.34766221
H        0.20451015      -0.41848814       2.51573849
H        0.57639539      -0.94979674       3.41208100
