21
Properties=species:S:1:pos:R:3 pbc="F F F"
H        0.00000000       0.00000000       0.00000000
H       -0.67230010      -0.60990006       0.35227177
H       -0.66573286       0.34576523      -0.02187333
H       -1.33634901      -1.44503760       0.51262045
H       -1.27081132       1.11713374      -0.32550886
H       -1.67270827      -2.23943663      -0.04336196
H       -0.74647766       0.77004325      -1.06892216
H       -1.72119021      -1.92412806      -0.96330273
H       -0.87868106      -0.14838737      -0.77384871
H       -0.01278406       0.63927752      -1.84912801
H       -0.86908704      -1.45446706      -1.00071454
H       -1.37941396      -0.91734040      -0.30453438
H       -1.20222175      -1.40398490      -0.50040114
H       -0.10068759      -0.28122109      -0.81543350
H       -1.55651212       0.15879267      -0.73058259
H       -0.03081756       1.00339961      -2.19131207
H        0.48759916      -0.12641299      -1.35900092
H        0.92534059      -0.49285260      -0.38197714
H        0.75209206      -1.49877560      -0.27507696
H        1.07133234      -0.99183232       0.44128865
H        0.82248700      -1.80046201       0.34574449
