21
Properties=species:S:1:pos:R:3 pbc="F F F"
H        0.00000000       0.00000000       0.00000000
H        1.00909960       0.15966894       0.09771150
H        1.22298503      -0.23924224      -0.82340020
H        0.57577085       0.44625193      -1.06685925
H        1.94968820      -0.79502106      -1.15667677
H        1.67478585       0.80253649       0.54145342
H        0.81550062       0.76156044      -1.95633721
H        2.21491241       0.19436175      -1.09263265
H       -0.04299229       0.67586547      -0.28089887
H        0.85652852       1.33023369       0.53427285
H       -0.51239800      -0.85764241      -0.23499312
H       -0.16320284       1.69348192      -0.22319403
H        0.01550442      -0.14856249       0.17315598
H       -1.30189610      -0.98455876      -0.07344577
H       -0.06175026      -1.00304198      -0.07444546
H        1.12159681       0.77280802       0.62394083
H        0.20445450       1.55633736      -1.28455651
H        0.20445450       1.55633736      -1.28455651
H        0.20445450       1.55633736      -1.28455651
H        0.20267503       1.51743662      -1.27941954
H       -0.44427657      -0.33865362      -0.43088973
