21
Properties=species:S:1:pos:R:3 pbc="F F F"
H        0.00000000       0.00000000       0.00000000
H        0.05739931      -0.52769721       0.81627315
H        0.12270202       0.91159266      -0.45526573
H        0.09082994       0.43276566       0.97265196
H        0.26316720       1.24923801       1.57014394
H        1.07400787       1.19582212       2.19704747
H        0.14096150      -1.23885322       1.20715284
H       -0.14891142       0.22609848      -1.09117818
H        1.56394851       0.36409110       2.06960082
H       -0.50133377       0.27951437      -0.12874937
H        0.07720877      -1.67472303       0.97060877
H        1.46148598      -0.13488862       1.23979259
H       -0.35161960       1.11209345       0.63009113
H        1.21560884      -0.29699153       1.44534910
H       -0.40529573       1.65261340       0.75104910
H        0.76494360       1.06071758       1.39680934
H       -0.92728281       2.46627426       0.63465959
H        0.06229687       0.24117056      -0.24896741
H       -0.56671900       0.49882376      -0.29624754
H       -1.14721811       2.51695085      -0.31250530
H       -1.28247523       2.02649784       1.42743683
