21
Properties=species:S:1:pos:R:3 pbc="F F F"
H        0.00000000       0.00000000       0.00000000
H        0.65604281      -0.46966103       0.54505712
H        0.14661974      -1.02588236       1.24106717
H        1.31042385      -0.48656002       1.26586270
H       -0.78775388      -0.08439321       0.56602341
H       -1.06058812      -0.79347312       1.17497993
H       -0.83130223      -1.73211837       1.29512107
H        0.91402406      -0.94148916       1.83438778
H       -0.68800390       0.13344529       1.50976980
H       -0.03342783      -1.36626625       1.82697868
H       -0.10252011      -1.71430588       0.57270622
H       -0.05325818       0.48053578       2.16144991
H       -0.40999508       0.76593572       2.36463857
H        2.37578773      -0.22162130       0.82183373
H        0.78709394      -1.87397480       0.08647937
H        2.71014953       0.65822637       0.57257253
H        1.30476117      -2.18928337       0.84849125
H        0.82315600      -2.36406660       1.61389637
H       -0.12221777      -2.17929554       1.47180820
H        2.14977312      -1.63306212       1.02139783
H        2.66581035      -2.31855631       1.48168492
