6
Properties=species:S:1:pos:R:3 pbc="F F F"
H        0.00000000       0.00000000       0.00000000
H        0.88292891      -0.28314662      -0.29719594
H        0.91447973      -0.77819467       0.60127819
H        0.55782872      -0.55577880       0.57271105
H        0.97501373      -0.64179385       0.19950758
H        0.75839216      -0.28122109      -0.31608737
