21
Properties=species:S:1:pos:R:3 pbc="F F F"
H        0.00000000       0.00000000       0.00000000
H       -0.50007260       0.47200781      -0.61275923
H       -0.97320014       0.01689900       0.02562657
H       -0.59042430      -0.29669064       0.67212951
H       -0.54723424       1.08514690      -1.14880836
H       -0.46887961       1.12848401      -1.64072549
H       -0.24262571       0.89887047      -2.61510253
H        0.18820500       0.06713945      -2.34926558
H        0.02589096      -0.64194047      -1.70202470
H       -0.26879638       0.45383453      -1.86984205
H       -0.49981391       0.09079123      -1.51473737
H       -0.42105764       0.28633344      -0.69951117
H       -0.28273565      -0.91292012      -1.98719072
H       -0.30603188      -0.88311779      -1.98778820
H       -0.46929893       0.28633344      -0.70460999
H       -0.85776347       0.46100828       0.22422493
H       -0.49954954       1.29535985      -0.69765794
H       -0.83475310       0.44400412       0.24565753
H       -0.44542384       0.31686169      -1.97333455
H       -0.44833869       1.24706209      -0.68620360
H        0.24804080      -0.81914079      -0.14710252
