21
Properties=species:S:1:pos:R:3 pbc="F F F"
H        0.00000000       0.00000000       0.00000000
H       -0.90169489       0.25064358      -0.26867270
H        0.92083579       0.18477097       0.25686970
H       -1.03853142      -0.75527942      -0.11794624
H        0.64235127      -0.72682166       0.63735497
H       -1.00997221      -1.69738317       0.28819275
H       -0.60156333      -2.38287735       0.84618986
H       -1.05047369      -2.25849056       1.76070142
H       -0.26352847      -1.31156719       0.59758204
H        0.39035130      -2.32946134       0.58816648
H        0.75157040      -1.92009938       1.39439511
H       -0.27498096      -0.86052990       0.28213879
H        0.41288549      -1.04025173       1.63774979
H       -0.87875229       1.10898638       0.38466376
H       -0.36630464      -0.67514515       1.52063870
H       -1.46498227      -0.88987899       1.35550916
H        0.02338439      -1.84482980       0.92723906
H       -0.04077101       0.53416687       0.59945130
H       -0.92570311      -1.35953999       0.69470859
H       -0.42064953      -0.90951836       0.92024565
H       -0.35444725      -0.71383375       1.22826660
