6
Properties=species:S:1:pos:R:3 pbc="F F F"
H        0.00000000       0.00000000       0.00000000
H       -0.50107276      -0.25064358       0.79634464
H       -0.27857596       0.66094911       1.21205831
H        0.14029917       0.83173102       0.48641604
H        0.24781668       1.00283384       0.45289320
H       -0.62728608      -0.49504808       0.64402121
