21
Properties=species:S:1:pos:R:3 pbc="F F F"
H        0.00000000       0.00000000       0.00000000
H       -0.33100656      -0.58582085      -0.77496612
H       -0.03323784      -0.23873037      -1.63457239
H        0.67994332      -0.57108259      -2.29354024
H        1.40646362      -0.55418360      -1.64550972
H        0.53841710      -0.80365932      -0.39455882
H        0.63244843       0.40413719      -1.19083047
H        1.52919173      -1.06785119      -0.43805900
H        1.31196630      -0.05913553      -0.75146192
H        2.11796498      -1.49934077      -1.15950668
H        0.23147318       0.95566529       0.29402015
H        0.70251828       1.57226753      -1.37225747
H       -0.11734337       0.96434313       0.65214264
H        1.59942889      -0.61901993      -2.26932812
H        1.69120204      -0.91614997      -1.81205761
H        1.63214815       1.48787427      -1.64925396
H        0.20222884       1.69027567      -2.19920683
H        0.61464465       0.81042802      -2.26119232
H        1.08291757       0.79261559      -3.17427874
H        1.42401195       0.40106606      -1.90706205
H        1.63686633       1.48787427      -1.11161852
