21
Properties=species:S:1:pos:R:3 pbc="F F F"
H        0.00000000       0.00000000       0.00000000
H       -0.93989587      -0.24138860      -0.47165081
H       -0.22651178       0.43148959       0.90323478
H        0.93116802      -0.43148959      -0.00817158
H        1.09911132      -0.58297038       0.93888152
H       -1.07676184       0.05303538       0.61703861
H        0.57732695      -0.17360842       1.65178037
H       -1.91243327      -0.22266269      -0.00480223
H       -0.43875301      -0.97319984      -0.87335861
H       -0.00340718       0.58005226       1.85867250
H        0.51786518      -1.22609973      -0.39005679
H       -0.98202026      -0.71833313       1.28736591
H        1.37396717      -1.34410787       0.05852342
H        1.65773320      -2.04092455       0.75655431
H        2.49502182      -2.11619425       0.53875327
H        2.86780691      -2.86985493       0.04774639
H       -2.21915269      -1.15006959       0.31010005
H       -0.55324799      -1.53199387       0.96772331
H       -1.38593614      -1.51592171       0.78468025
H        0.74916661      -2.30511642       1.15408814
H        0.05157667      -0.98726922       1.55378151
