21
Properties=species:S:1:pos:R:3 pbc="F F F"
H        0.00000000       0.00000000       0.00000000
H        0.73469222      -0.22961354      -0.67884368
H       -0.54248470      -0.37845421      -0.71452343
H        0.54705316       0.68549418       0.42295554
H        1.29802680      -0.51276016      -1.42082953
H       -1.03011322       0.45327681      -0.57849801
H        0.92568219       0.72472382      -0.70754915
H       -1.44287920      -0.25580311      -0.05419767
H       -2.09238029       0.23924497       0.56741279
H       -0.87397420      -0.98761433       0.24389705
H        1.77249622       0.34488225      -1.72521794
H        1.88438010       0.90066105      -0.93360388
H        0.62106985       1.63255608       0.20928234
H        1.50866854       0.50455117      -2.70410728
H        0.86478174       1.57640088      -0.84027869
H        1.22782278       1.77115941      -1.78027558
H        1.75558472       1.30761135      -2.52854967
H       -1.56910133      -0.19224462       1.33768535
H       -0.03022647      -0.65526211       0.72447562
H        0.93292987      -0.74421710       1.06760955
H        1.00559044      -1.23735952      -1.65524185
