21
Properties=species:S:1:pos:R:3 pbc="F F F"
H        0.00000000       0.00000000       0.00000000
H        0.45934626      -0.55622131       0.73002923
H       -0.69078434       0.72254789      -0.23251967
H       -1.51234245       1.19220889      -0.00334361
H       -0.90968418       0.34709048      -0.00798289
H        0.78744555      -0.89569616       0.56538510
H        1.52690160      -1.48151708       0.16122848
H       -2.12918901       1.77539968       0.47357315
H        1.80187297      -0.63271797      -0.22863275
H        1.96606958      -2.40892410       0.14194670
H       -2.44024920       2.01657701       0.16523075
H        2.59943914      -0.54832476      -0.78074419
H        1.03726506      -2.24925518       0.54833543
H        0.76884544      -1.55272424       0.43104193
H        1.23356175      -2.04381752       0.43226466
H        1.21998823       0.03469932      -0.69590110
H        0.22406155      -0.36867610      -0.34109268
H        0.23916078      -0.33174029      -0.26675028
H        0.18995750      -0.25658917      -0.32894278
H        0.64535087      -0.63400877       1.18757856
H        0.66129375      -0.63400877       1.18076897
