21
Properties=species:S:1:pos:R:3 pbc="F F F"
H        0.00000000       0.00000000       0.00000000
H       -0.78841746      -0.36585209      -0.54577839
H        0.21506634       0.83173102      -0.45829126
H        0.41653973       0.12438690       0.92970234
H        0.96783835       0.91899705       1.04250920
H       -0.06766936       0.98321182      -1.37762523
H        0.45694250       1.56354225       0.13669547
H        1.12122834       0.36321825       0.25788045
H       -1.01712620      -0.75286704      -0.32689086
H        0.96488023       1.93137670       0.87397897
H       -1.16416633      -1.50027561       0.36091992
H        1.49048686       0.30980235      -0.69821513
H        0.80129093       2.09617233       0.03717792
H       -0.31906992      -1.12182140       0.66199374
H        0.78929079       1.33030224      -1.07232475
H        1.91254139       0.11546099      -0.51354951
H        2.71438122      -0.44076031      -0.19575298
H       -0.65954781       1.11012816      -1.92451143
H        0.05180347      -0.32721126       0.23878163
H        2.77303052      -0.93974006       0.63829762
H        0.43144464      -0.29775554       0.46676499
