21
Properties=species:S:1:pos:R:3 pbc="F F F"
H        0.00000000       0.00000000       0.00000000
H       -0.30820453      -0.91843063       0.09775501
H       -0.29597270      -0.69681674      -0.69294339
H       -0.43795860      -1.43131280      -0.09765334
H        0.27643275       0.73716968       0.21372470
H        0.20600176       1.07664454      -0.14654782
H        0.21879336       1.79919243      -0.87530351
H       -0.69962204       1.92357934      -0.43443522
H        0.05337773       1.00458229      -1.41316342
H       -1.51668382       2.62819695      -0.44160530
H        0.34947556       0.38986772      -2.17982888
H       -0.07120627      -0.46777469      -1.80459523
H       -0.64948082       0.90585899      -0.07967001
H       -0.51518512      -0.21713111      -0.97506434
H       -0.67125827       0.67223012      -0.76681322
H        0.11313190      -0.02901915      -1.45675874
H       -1.91182065       2.85402822      -0.23456152
H       -0.71557552       2.15245199      -1.08376038
H       -2.60904074       3.37997985       0.30449617
H       -2.38259196       2.65743208       0.99729431
H       -3.10848379       4.25666904       0.11662336
