21
Properties=species:S:1:pos:R:3 pbc="F F F"
H        0.00000000       0.00000000       0.00000000
H       -0.07115869       0.77136850       0.67323917
H        0.26008308       1.35455930      -0.03261369
H        0.04645358       2.24923944      -0.48784325
H       -0.14309986       0.34709048      -0.89839387
H        0.52715218       0.98296487      -1.20578110
H        0.45671123       2.74428749      -1.28780568
H       -0.80175304       1.99859583      -0.08067733
H       -1.72669327       2.24923944      -0.25308442
H       -0.64446712       1.24102950       1.30474281
H        0.44737318       1.59286499      -0.45098436
H       -0.20201993       1.20651186      -0.79046226
H       -0.49604839       1.18049979       0.21189982
H       -0.52945185       0.62631494       2.11851263
H       -2.04027700       2.52021909       0.02662134
H       -0.96276903       1.84253228       0.68408501
H       -0.56363559       0.73817796       2.60463834
H       -0.31731719       1.92022157      -1.24019909
H        0.65833318       3.15233064      -1.08080459
H       -0.18901186       1.90606296      -2.04571104
H       -0.01127083       0.45181367      -0.21386297
