21
Properties=species:S:1:pos:R:3 pbc="F F F"
H        0.00000000       0.00000000       0.00000000
H       -0.92501378       0.29845181       0.32954502
H       -0.30164102      -0.84879911      -0.36961293
H       -0.99038219      -0.32110190      -0.81146383
H       -0.61653960       0.63456339      -0.82787746
H       -1.54455805      -0.39836493      -0.09933168
H       -0.92501378       1.04586029       1.03289735
H       -0.66132641       1.92570794       0.70979059
H       -0.27797052       1.12961149       0.00496238
H       -0.04652846       1.97638452      -0.04354620
H       -0.55636543       0.76966786       0.02785665
H       -0.90675032      -0.89399719       0.25163984
H       -0.85402578      -1.21108043       1.00143361
H       -1.09824681      -1.64695024       0.98210520
H       -1.48820925       2.33506989       0.39874655
H       -1.74063897       2.25067663      -0.53785259
H       -1.58630431       1.33908391      -0.98338991
H       -0.42455852       1.06093240       0.32333940
H        0.06042460       1.10269070       0.42752340
H        0.27340263       1.05183768       0.47036448
H       -0.54716855       1.03430104       0.47045028
