21
Properties=species:S:1:pos:R:3 pbc="F F F"
H        0.00000000       0.00000000       0.00000000
H       -0.13959605      -0.55577880       0.78719991
H        0.03936434      -0.50236291       1.79637980
H       -0.68453074      -0.58675611       2.44206905
H        0.73397714       0.13351148       2.04384232
H       -0.36695173       0.84879911       0.30487287
H        0.39985776       0.71340680       2.95628762
H       -0.47322592       0.06008422       1.60788941
H       -0.40664667       0.06168431       1.84991765
H       -0.23396116      -0.15148079       0.93293977
H        0.02454510       0.30404484       2.15652251
H       -0.12272877       0.20231527       2.09248233
H       -0.09611002       0.03564453       2.19791746
H        0.02631643       0.10013711       2.08173752
H        0.07843259       0.42211831       1.91115236
H       -0.87490928      -1.60928178       1.99634695
H       -0.87490928      -1.60928178       1.99634695
H       -0.87490928      -1.60928178       1.99634695
H       -0.87490928      -1.60928178       1.99634695
H       -0.87490928      -1.60928178       1.99634695
H       -0.87490928      -1.60928178       1.99634695
