21
Properties=species:S:1:pos:R:3 pbc="F F F"
H        0.00000000       0.00000000       0.00000000
H       -0.26684549      -0.92909771       0.11675546
H        0.51940274      -1.12385631      -0.51348794
H        0.69351637      -0.16951895      -0.42990798
H        0.05282182      -1.03490126      -1.42327535
H       -0.70750171      -0.75431436      -0.67293477
H       -0.89342934       0.19274753      -0.80164230
H       -1.52291954       0.02489044       0.05841196
H       -0.07610482      -0.02250314      -0.79062605
H       -0.76517051      -0.07318816       0.89307821
H       -0.74928612      -0.23824584      -1.37394166
H       -0.76110160      -0.26661605      -1.25673008
H        0.18906111      -0.37558240       0.31265551
H       -1.53456938      -0.45711660      -0.07400212
H       -0.99154061       0.42380160       0.84060776
H       -0.46293628      -0.17770118       0.38551471
H       -0.16648561      -0.53884065       0.59265095
H        0.16299850      -0.75913316      -0.07626840
H       -0.22275817      -0.40026426       0.94239187
H       -0.37003368      -0.52180415       0.83515364
H       -0.77346653      -0.35093629      -0.09854245
