7
Properties=species:S:1:pos:R:3 pbc="F F F"
H        0.00000000       0.00000000       0.00000000
H        0.05739931      -0.52769721       0.81627315
H        0.19224833       0.87668937      -0.49777526
H        0.11537778       0.47055709       1.04746723
H       -0.22026002       0.75370371       0.17842400
H        0.77798474       0.61249751       0.30249929
H        0.04902820       0.19800025       0.33935782
