17
Properties=species:S:1:pos:R:3 pbc="F F F"
H        0.00000000       0.00000000       0.00000000
H        0.80713278      -0.08439321       0.53802919
H        1.72609913      -0.45024529       0.26421002
H       -0.41668496       0.39891118       0.84886253
H        0.36021730       0.01167691       1.15677547
H        0.98527902      -0.03424057       0.61982697
H        1.18389845       0.60851103       0.56830823
H       -0.71065301      -0.18251334      -0.35661405
H       -0.71065301      -0.18251334      -0.35661405
H       -1.43035603      -0.81838775      -0.51708901
H       -1.46525168      -0.76570415      -0.55290520
H        0.02879918       0.46588874       1.16895556
H        2.11315536       0.42051759       1.05271339
H        2.19408083      -0.44393632       1.03466916
H        2.34401727      -0.41665253       1.05068743
H       -0.71573740       0.01415862      -0.39119303
H       -0.12581387       0.33897239       0.37807035
