8
Properties=species:S:1:pos:R:3 pbc="F F F"
H        0.00000000       0.00000000       0.00000000
H       -0.61304885      -0.15966894      -0.80746567
H       -0.20980483       0.55622131       0.83661443
H       -0.40572190      -0.42386079       0.16234982
H       -1.04234338       0.11644486       0.58854783
H       -0.79226393       0.87152982       0.12290370
H       -0.83985639       0.69674647      -0.78015971
H       -0.43856755      -0.00007027      -0.14239985
