13
Properties=species:S:1:pos:R:3 pbc="F F F"
H        0.00000000       0.00000000       0.00000000
H        0.93511528      -0.39891118      -0.14054634
H        1.16162705      -0.83040076       0.76268846
H        1.64553130      -0.62852472      -0.84475547
H        0.65149820      -1.27467465       0.13760686
H        1.40637600      -0.39453095       0.75194269
H       -0.14333498      -0.90021324       0.67047894
H        0.56391144      -0.44659597       1.34735489
H        0.95613027      -0.92678952      -0.31174308
H        0.21366686      -0.20335752       0.44145003
H        1.27042985      -1.47900796      -0.19942760
H        1.57529449      -1.33723104      -0.34780765
H        0.04174671      -0.63242263       0.59367836
