6
Properties=species:S:1:pos:R:3 pbc="F F F"
H        0.00000000       0.00000000       0.00000000
H        0.36925858       0.05341591      -0.95609558
H       -0.01188109      -0.77136850      -0.67688513
H       -0.13971075       0.33754024       0.78784680
H       -0.14777005      -0.43901631       0.28457218
H        0.16036251       0.68693614      -0.18786103
