20
Properties=species:S:1:pos:R:3 pbc="F F F"
H        0.00000000       0.00000000       0.00000000
H       -0.21671417       0.94706190      -0.06457304
H        0.12226000      -0.67024595      -0.76755893
H        0.18799704       1.73279905      -0.68340528
H       -0.62035990       1.41749048      -1.12522042
H       -0.43814081       0.49344462      -1.01816046
H       -0.26217121      -1.01964188       0.17809564
H        0.04788463      -0.31224874      -1.61292529
H       -0.43100899      -1.10685885      -1.31743169
H       -1.37091362      -0.82911867      -0.86624789
H       -0.74104345       0.04574847      -1.30024612
H       -1.63446605      -0.21584898       0.04748690
H        0.35358697       0.96311998      -1.16143453
H       -0.99783230      -0.93981045      -0.37032723
H       -0.88997096       0.51540947      -0.46042472
H       -1.59247923       0.13748765      -0.32122326
H       -2.03029895      -0.48682863       0.18850613
H       -1.34466493       0.12654662      -0.49296692
H       -1.91592753      -1.22399831      -0.14166427
H       -1.11283565      -1.03471398       0.35215887
