10
Properties=species:S:1:pos:R:3 pbc="F F F"
H        0.00000000       0.00000000       0.00000000
H       -0.50007260       0.47200781      -0.61275923
H       -0.93909663       0.25064358       0.05775913
H       -0.64009815       0.94265664      -1.32902563
H       -1.50299871       0.99805212      -0.36262032
H       -0.93045706       1.43782854      -1.01596069
H       -0.34106511       0.66322643      -1.04183805
H       -0.12110577       0.67075121      -0.61948693
H       -0.63275427       0.97841275       0.36040100
H       -0.40232739       0.85402584      -0.63194728
