13
Properties=species:S:1:pos:R:3 pbc="F F F"
H        0.00000000       0.00000000       0.00000000
H       -0.07115869       0.77136850       0.67323917
H        0.25205642       1.14982271      -0.16363919
H       -0.52466780       1.20323861      -0.83234704
H       -0.99138540       0.26419187       0.02610543
H       -0.67258233       0.84738266       0.73766291
H       -0.87372577       1.93578959      -0.12125283
H       -0.60767496       0.36567664      -0.24504507
H       -0.09852648       2.15052342       0.67462802
H       -0.09379357       2.11183476       0.67948723
H       -0.06575841       2.26485181       0.59942573
H       -0.54883307       1.10736394      -0.31292346
H       -0.54964912       1.60746074       0.67593741
