5
Properties=species:S:1:pos:R:3 pbc="F F F"
H        0.00000000       0.00000000       0.00000000
H       -0.47549847       0.19475858       0.88842231
H        0.69942659       0.61471456       0.43156967
H        0.68435454       0.58582085       0.49172825
H        0.13133040       0.69045317       1.26285601
