13
Properties=species:S:1:pos:R:3 pbc="F F F"
H        0.00000000       0.00000000       0.00000000
H        0.87909138       0.39891118       0.34841394
H        0.81203288       0.21414021       1.30205107
H        0.57853460       0.30995619      -0.62886626
H       -0.52102047      -0.44427392       0.61603254
H        0.32566500      -0.16653374       1.22440028
H        0.65562493       0.21808001       0.27186364
H       -0.85683590      -1.85206866       0.60128844
H       -0.85683590      -1.08070016       1.27827787
H       -0.03941214      -0.72270298       1.50630045
H       -0.02142966      -1.46483445       0.62328666
H       -0.39237189      -1.48356032       1.63629127
H        0.00083274      -1.77679908       0.71484077
