21
Properties=species:S:1:pos:R:3 pbc="F F F"
H        0.00000000       0.00000000       0.00000000
H       -0.51304650      -0.77136850      -0.44169885
H       -0.30261883      -1.70046616      -0.24030733
H        0.35987315      -1.56970048       0.60119843
H       -0.75792736       0.58319080       0.18301767
H        0.29113075      -1.08575153       0.32794553
H       -0.20352405      -0.01689900       0.95202589
H        0.13111508       0.08814272       0.04939602
H        0.80202425      -0.20880145      -0.22037895
H        0.80898130      -0.20880145      -0.26666695
H        0.40365678      -0.69153708      -0.48194692
H        0.04964989      -0.18509442       0.37802452
H        0.07257277      -0.18509442       0.20488667
H        0.07250655      -0.06271434      -0.23370403
H       -1.03419936       0.48208073       0.85684884
H       -1.03419936       0.48208073       0.85684884
H       -1.01649392       0.51079822       0.85887754
H       -1.19521499       0.24729286       0.94332337
H       -0.20739794      -0.21346462      -0.40241235
H       -1.21909857       0.10748790       0.87165010
H        0.31488720      -1.23022556       0.23687291
