8
Properties=species:S:1:pos:R:3 pbc="F F F"
H        0.00000000       0.00000000       0.00000000
H        0.83968246      -0.37845421      -0.31585881
H        0.53309643      -0.87668937      -0.02340572
H       -0.62110400       0.47064883       0.38324213
H       -0.08591253      -0.86070383       0.65843749
H        0.43534967      -0.45828563       0.50784004
H       -0.42871696      -0.00135899       1.15040159
H        0.14456320       0.23587196       0.62070000
