10
Properties=species:S:1:pos:R:3 pbc="F F F"
H        0.00000000       0.00000000       0.00000000
H        0.49089283       0.77460212       0.32722577
H       -0.17061764       1.48368204       0.41480741
H        0.66167229       1.91517162      -0.00284567
H       -0.35726193       0.94210368      -0.19526489
H       -0.09903570       0.94210368       0.39491317
H        0.88686138       0.94020534      -0.40640223
H        0.18686551       0.56175113      -0.96750754
H        0.73314971       0.63245893      -0.36577141
H       -0.18829703       1.30190194      -0.42937031
