21
Properties=species:S:1:pos:R:3 pbc="F F F"
H        0.00000000       0.00000000       0.00000000
H       -0.92830116      -0.43148959      -0.07346868
H       -0.27769232      -0.63587439       0.68308979
H       -1.59764981      -0.56659406      -0.61000776
H       -0.55962425      -0.08895500      -0.85570532
H       -0.65450335      -0.37183547      -0.96478611
H       -0.43558520       0.27073377       1.80023193
H       -0.39628273       0.27073377       1.80508494
H       -0.43989342       0.23103082       1.83071399
H       -0.43989342       0.23103082       1.83071399
H       -0.36105451       0.19028330       1.86858106
H       -0.39951855       0.23103082       1.83569932
H       -0.39951855       0.23103082       1.83569932
H       -0.39951855       0.23103082       1.83569932
H       -0.43558520       0.27073377       1.80023193
H       -0.43558520       0.27073377       1.80023193
H       -0.43558520       0.27073377       1.80023193
H       -0.35683361       0.27073377       1.80855584
H       -0.35683361       0.27073377       1.80855584
H       -0.35683361       0.27073377       1.80855584
H       -0.44400620       0.19028330       1.85981345
