5
Properties=species:S:1:pos:R:3 pbc="F F F"
H        0.00000000       0.00000000       0.00000000
H        0.13252793       0.60990006       0.74734145
H       -0.29700184       0.89468008       0.40578496
H       -0.28512070       0.12331158      -0.27110016
H       -0.44345480       1.02796412       0.34862006
