12
Properties=species:S:1:pos:R:3 pbc="F F F"
H        0.00000000       0.00000000       0.00000000
H       -0.43620220       0.58582085      -0.72101700
H       -0.62231195       0.50142765      -1.67301583
H       -0.99136281       0.06165120      -2.45943737
H       -0.67253155      -0.46354809      -0.62140840
H       -0.69100153      -0.50324619      -1.28566647
H       -1.62697732      -0.33725998      -1.75930309
H       -0.10906819      -0.23709527      -0.88330501
H       -1.21348214       0.56436408      -1.33477616
H       -1.11686194       0.71009159      -3.10139751
H       -1.21122026       0.50402814      -2.20866442
H       -0.96517789       0.27031514      -2.24603248
