6
Properties=species:S:1:pos:R:3 pbc="F F F"
H        0.00000000       0.00000000       0.00000000
H        0.88791460       0.34709048      -0.19798161
H        0.31164473       0.06394386       0.53400332
H        1.22052908       0.49543345       0.33134604
H        1.13218379       0.48073912      -0.12972303
H        0.29394501       0.23723094       0.72306997
