13
Properties=species:S:1:pos:R:3 pbc="F F F"
H        0.00000000       0.00000000       0.00000000
H        0.02715597      -1.02162731       0.09414954
H        0.59488565      -0.25064358      -0.72893739
H       -0.88669091      -0.93267232      -0.36442959
H        0.21390709      -1.02524567      -0.27848446
H       -1.02189136      -0.02412641      -0.43227476
H       -0.08016777       0.35085919      -0.90453666
H       -1.33626246      -0.13575569       0.42623997
H       -0.44543648      -0.18643233       0.81601167
H       -0.57368851       0.02381095      -1.23548961
H       -0.44024092      -1.02563596      -1.02340424
H       -0.97245073      -0.80650687      -0.08958137
H       -0.06789616      -0.83912885       0.38519183
