9
Properties=species:S:1:pos:R:3 pbc="F F F"
H        0.00000000       0.00000000       0.00000000
H        0.73469222      -0.22961354      -0.67884368
H        0.47547537      -0.43977645      -0.72703558
H       -0.61493462       0.41936818       0.78109735
H       -0.27614132      -0.13685313      -0.01209927
H       -0.93059349      -0.37728724       0.04206395
H       -1.63678241      -0.25094983       0.59062684
H       -0.96450692       0.19408610       0.91334003
H       -1.43869495       0.33866438       1.19665623
