21
Properties=species:S:1:pos:R:3 pbc="F F F"
H        0.00000000       0.00000000       0.00000000
H       -0.73394406      -0.63587439       0.07106813
H       -1.56525183      -0.75388247      -0.42194539
H        0.12475080      -0.96543115       0.02099494
H       -0.17471734      -1.08981800      -0.95274556
H       -1.32963896       0.16958338      -1.03200126
H       -0.48904073       0.38742188      -0.59154475
H       -0.63864303      -0.59189725      -0.85964382
H       -1.94281566      -1.06932449      -0.17026395
H       -1.02618897      -1.08530998      -0.08150663
H       -1.08908319      -0.77105969       0.00442702
H        0.63138747      -0.71723974      -2.09566092
H        1.38216496      -0.93507826      -1.51519537
H        1.69704270      -0.22599834      -0.92687690
H        1.33611917      -1.94100130      -1.71349430
H        0.63138747      -0.71723974      -2.09566092
H        0.76932651       0.17737707      -1.43392897
H        0.64622635       1.18330014      -1.59606802
H        0.06719291       0.23079298      -2.18057418
H       -0.06034684       0.65734857      -2.12280631
H        0.07263583      -0.46395752      -2.45411921
