21
Properties=species:S:1:pos:R:3 pbc="F F F"
H        0.00000000       0.00000000       0.00000000
H        0.05321160       0.83173102       0.50344110
H        0.29099023       0.87984765       0.29875353
H       -0.17858703      -0.95834106      -0.46240282
H       -0.10008116      -0.03669322       0.09305137
H        0.25835544       0.06418461      -0.25265679
H        0.69704294      -0.43834078      -1.16429317
H        0.69704294      -0.43834078      -1.16429317
H        0.69704294      -0.43834078      -1.16429317
H        0.69704294      -0.43834078      -1.16429317
H        0.69704294      -0.43834078      -1.16429317
H        0.69704294      -0.43834078      -1.16429317
H        0.69704294      -0.43834078      -1.16429317
H        0.69704294      -0.43834078      -1.16429317
H        0.69704294      -0.43834078      -1.16429317
H        0.69704294      -0.43834078      -1.16429317
H        0.69704294      -0.43834078      -1.16429317
H        0.69704294      -0.43834078      -1.16429317
H        0.69704294      -0.43834078      -1.16429317
H        0.69704294      -0.43834078      -1.16429317
H        0.69704294      -0.43834078      -1.16429317
