7
Properties=species:S:1:pos:R:3 pbc="F F F"
H        0.00000000       0.00000000       0.00000000
H        0.11786898      -0.15148079      -0.95457917
H        0.10452307      -0.46966103      -0.84649527
H       -0.14285761       0.34939590       1.01076281
H       -0.06423237      -0.02905831       0.11708981
H        0.50858879       1.07194376       0.68385923
H        0.49671501       1.07194376       0.66119838
