14
Properties=species:S:1:pos:R:3 pbc="F F F"
H        0.00000000       0.00000000       0.00000000
H       -0.93989587      -0.24138860      -0.47165081
H       -0.23001803       0.39891118       0.91721618
H        0.92830116      -0.43148959      -0.07346872
H        1.10296202      -0.66110313       0.91146529
H       -0.90282834      -0.12878603       0.45146635
H        1.98105252      -0.10817969       0.61589795
H       -0.43544072      -0.03532517       0.27091280
H        1.02525258      -0.05569464      -0.38871244
H        1.58475590       0.81922722       0.80613279
H        0.14639401      -0.57670993       1.07245111
H        1.16219282       0.53805870       0.34026781
H       -0.12028000      -0.23373100       0.38197094
H        1.79536629      -0.06868047       0.68122864
