21
Properties=species:S:1:pos:R:3 pbc="F F F"
H        0.00000000       0.00000000       0.00000000
H       -0.49101692      -0.19475858      -0.87994057
H        0.06597334       0.36146271      -0.22137880
H       -1.07085228      -0.56061065      -1.64365983
H       -0.70963317      -0.15124869      -0.83743125
H       -2.17098808      -0.20093793      -1.20763826
H       -1.74311292       0.13141426      -0.33597964
H       -1.63525283       0.14922673       0.68449718
H       -2.65602207      -0.20016918       0.67553949
H       -3.06495404       0.01690057      -0.88915431
H       -3.40217185      -0.81006920       0.53645861
H       -2.47731686      -0.73676014      -0.70277005
H       -2.55218172      -0.16608179       0.77328378
H       -2.88546610      -0.47252896       1.14738965
H       -1.80890083       0.85830665       0.04020458
H       -2.53230596       0.18247151      -0.38881648
H       -2.15500879      -0.20093793      -1.16929853
H       -1.33954167       0.27356112      -0.73561883
H       -0.60781980      -0.68931949      -1.78162694
H       -0.36292365      -0.14962882      -1.13532829
H       -0.29088694      -0.17604525      -1.07928848
