21
Properties=species:S:1:pos:R:3 pbc="F F F"
H        0.00000000       0.00000000       0.00000000
H       -0.32983679       0.96807545      -0.08579928
H        0.09682941      -0.31530851       0.91611439
H        0.99867886      -0.66239899       1.03551614
H        0.35157341       0.30699283       0.13032755
H        0.58266437       0.00835222       0.56079245
H        0.64963043      -0.38117790       0.29171842
H        0.34639490       0.29031318       0.51737559
H        0.44327003       0.32217032       0.42954838
H        0.88051391       0.42845911       0.75886357
H        0.98935318       0.40189761       0.85856164
H        0.39206457       0.19979024       0.32537851
H        0.28443336      -0.22257382       0.27599120
H        0.40146130       0.01536328       0.35401750
H        0.37791240       0.01536328       0.37539637
H        0.39440054       0.04640377       0.39292979
H        0.37222159       0.04640377       0.41453236
H        0.40865105       0.10588622       0.45064354
H        0.40844035       0.13425642       0.49014527
H        0.45045167       0.18808430       0.52896303
H        0.51174343       0.23781425       0.55283523
