11
Properties=species:S:1:pos:R:3 pbc="F F F"
H        0.00000000       0.00000000       0.00000000
H       -0.02481474      -0.91159266      -0.47085762
H        0.72266549      -0.22961354       0.69163287
H        0.88787973      -1.19473934      -0.28410184
H        0.58583754      -1.31050384       0.25115180
H        1.69125080       0.17376187       1.11542726
H        1.70349288       0.13682607       1.12078381
H        1.39601541      -0.44733083       0.20221350
H        0.28447863      -0.83173102       0.41875571
H        0.52753478       0.13256449      -0.23360032
H        0.58100510       0.09849143      -0.36197361
