12
Properties=species:S:1:pos:R:3 pbc="F F F"
H        0.00000000       0.00000000       0.00000000
H        0.15274149      -0.33235219      -0.95892441
H        0.52886558       0.81366080      -0.07948764
H       -0.39038724       0.34348294      -0.31675202
H        0.86071610       0.11192173      -1.34587455
H        1.23486924       1.09680748      -0.68730968
H        1.63969624       0.32852226      -1.41279149
H        1.11916029       0.93002504      -0.94849145
H        1.33806264       0.89108932      -2.71179533
H        2.17027688       0.48172736      -2.41531086
H        1.29266095       0.89108932      -2.70040941
H        1.46259451       0.18346256      -1.90682113
