6
Properties=species:S:1:pos:R:3 pbc="F F F"
H        0.00000000       0.00000000       0.00000000
H       -0.01035373      -0.77460212      -0.58986890
H       -0.31188595      -0.45929360      -1.46034002
H       -0.20199086      -0.08910793       0.07453591
H       -0.51238126       0.31205410      -1.11540604
H       -0.42188722       0.23156768      -0.94578642
