13
Properties=species:S:1:pos:R:3 pbc="F F F"
H        0.00000000       0.00000000       0.00000000
H        0.54628479      -0.64623839      -0.66938484
H        0.26722991       0.24755239      -0.40231305
H        0.93686914      -1.46433449      -0.83217502
H        0.30161667      -0.86878568       0.05076059
H        1.19909585      -1.26957595      -1.80512428
H        0.47560927      -0.83065176       0.16674930
H        0.85217011      -0.95426744      -0.95172870
H        0.71980524      -0.79991496      -1.09960330
H        0.39942098      -0.47814506       0.05599234
H       -0.32447135       0.27267253       0.91834360
H        0.23491488       0.44189376       0.05723801
H        0.60028160      -0.28025091       0.97522068
