7
Properties=species:S:1:pos:R:3 pbc="F F F"
H        0.00000000       0.00000000       0.00000000
H        1.00909960       0.15966894       0.09771150
H        0.17678708      -0.30387914      -0.28399903
H        1.84560263       0.48799777       0.29970309
H        0.99740386       0.27015927      -0.12593302
H        0.81924641       0.01225281       0.32672939
H        0.88205999      -0.05782449       0.53237092
