21
Properties=species:S:1:pos:R:3 pbc="F F F"
H        0.00000000       0.00000000       0.00000000
H        0.21426670       0.05341591       1.00227761
H       -0.22975998       0.24817449       1.90684009
H       -0.55252165       0.97998571       2.46212220
H        0.18341836       0.18477097      -0.93823153
H       -1.49517870       0.61413360       2.28641272
H       -0.71199030      -0.16442259       0.79574645
H       -1.61304760       0.46265280       1.33183360
H       -2.08043861      -0.38614631       1.42747128
H       -1.17740405       1.30021477       0.92930603
H       -1.53293920      -0.61575985       0.59030586
H       -0.72086346       0.00998762      -0.94616699
H       -1.63397264       2.32274055       1.09196293
H       -0.72086346      -0.42150196      -0.01496315
H       -0.83219039       0.59960186      -0.31838000
H       -1.10388613       3.11735058       1.28081143
H       -1.39816189       2.93264055       1.81340325
H       -1.52488971       2.26682115       1.40406573
H       -1.34609807       2.35389709       1.30582523
H       -1.71982026       2.20042801       1.34867668
H       -1.02328670       0.07339114       1.47313058
