5
Properties=species:S:1:pos:R:3 pbc="F F F"
H        0.00000000       0.00000000       0.00000000
H       -0.53245163       0.67024595      -0.56620628
H       -0.73179054       0.14429438      -1.42467165
H       -0.60716826      -0.29518521      -0.46412310
H        0.12560120      -0.05341591      -1.01719964
