9
Properties=species:S:1:pos:R:3 pbc="F F F"
H        0.00000000       0.00000000       0.00000000
H       -0.41358426      -0.01689900      -0.88131911
H        0.67274654       0.43148959       0.64385760
H        0.54894686       1.44386923       0.52946866
H       -0.00515691       1.02162731      -0.09785187
H        0.46362454       1.42697024      -0.44032282
H        0.83396840       0.37807369      -0.36830747
H        0.30414101       0.56003344      -0.86241972
H        0.15653279       0.68771857      -0.29599190
