8
Properties=species:S:1:pos:R:3 pbc="F F F"
H        0.00000000       0.00000000       0.00000000
H       -0.92501378       0.29845181       0.32954502
H       -0.48192489      -0.89468008      -0.14359632
H       -1.25907040      -0.33890128       0.04406197
H       -0.53495651      -0.69992149      -1.14986694
H       -1.01107442       0.59690362      -0.64863902
H       -1.24151516      -0.10928774      -0.95608467
H       -0.17681187       0.23890641      -0.80414414
