21
Properties=species:S:1:pos:R:3 pbc="F F F"
H        0.00000000       0.00000000       0.00000000
H       -0.90169489       0.25064358      -0.26867270
H        0.34122458       0.43977645      -0.79888880
H       -1.02137685      -0.69146013      -0.65782654
H        0.20262088      -0.47181621      -1.24956799
H       -0.11281025      -0.95565200      -0.26029265
H       -0.17812358      -0.90330577      -0.39975953
H       -0.52292764      -0.36656576      -1.71503210
H       -0.71516740      -1.29003167      -2.34011245
H       -1.45028281      -1.37442493      -2.97299790
H       -0.91747010      -0.78860408      -3.62587500
H       -0.75845605      -1.22490859      -2.32486916
H       -1.19912434       0.25878263      -1.72096598
H       -1.19912434       0.25878263      -1.72096598
H       -1.93410325      -0.03250587      -0.91138101
H       -1.07400966      -0.36485806      -0.46070933
H       -1.62426281      -0.23311557       0.32413387
H       -1.83857632      -0.07027966      -0.84730130
H       -1.86884332      -0.07027966      -0.87028080
H       -1.03049827      -1.00163674      -1.17749059
H       -1.03049827      -1.00163674      -1.17749059
