19
Properties=species:S:1:pos:R:3 pbc="F F F"
H        0.00000000       0.00000000       0.00000000
H        0.69739223       0.29845181      -0.69129914
H        0.02887994       0.96869779      -1.08776557
H        0.47580057      -0.47291669      -1.33099580
H       -0.37873176      -0.67024595      -0.67871684
H       -0.98501492      -0.03437155      -1.09841359
H       -0.31385019       0.22128928      -1.70196462
H       -0.72013623       0.71303695      -0.44684339
H       -0.61954433       0.69681674      -0.42887670
H        0.76167667       0.39223304      -0.14197519
H        1.12390244       1.00809610       0.66650033
H        0.62925041       1.86573851       0.39614356
H        0.26749527       0.69278759       1.00592375
H       -0.29576337       1.56728673       0.72568858
H        0.39096493       1.40219045      -0.48797578
H       -0.09964100       1.08688188       0.29173404
H       -0.15421903       0.28668496      -1.76712394
H       -0.33668989       1.74516940      -0.62360924
H        0.09113549       0.10959679       0.24641955
