10
Properties=species:S:1:pos:R:3 pbc="F F F"
H        0.00000000       0.00000000       0.00000000
H        0.24483983      -0.86484438      -0.37437752
H       -0.01704117       0.33235219      -0.97086328
H        1.27394140      -0.55108738      -0.45582393
H        1.16400170      -0.17263317      -1.34618711
H        0.12450358      -0.56639254      -1.34893870
H        0.97373343       0.59654403      -1.01436353
H        0.98227543       0.36050528      -0.08534631
H        1.04483438      -0.25108403      -1.38934600
H       -0.24068031      -0.35063362      -0.91716069
