8
Properties=species:S:1:pos:R:3 pbc="F F F"
H        0.00000000       0.00000000       0.00000000
H       -0.04850490       0.68549418       0.68978679
H       -0.87852359       0.11800810      -0.40290359
H       -0.90320736       0.86541659       0.30001542
H       -1.32663083       0.16859984       0.92329931
H       -0.30663306      -0.79439902       0.57291377
H       -0.44439256      -0.04923865       1.27296042
H       -1.26669133      -0.60453981       0.21400335
