8
Properties=species:S:1:pos:R:3 pbc="F F F"
H        0.00000000       0.00000000       0.00000000
H        0.68725604      -0.43977645       0.53135377
H        1.10300398       0.44007120       0.49845016
H        0.40300810       0.81852543      -0.06265515
H        1.65790260       0.28040224      -0.35002923
H        1.16062450      -0.61427784      -0.42476934
H        0.91431636       0.68976420      -0.82706511
H        0.52477986      -0.15966894      -0.86743051
