9
Properties=species:S:1:pos:R:3 pbc="F F F"
H        0.00000000       0.00000000       0.00000000
H       -0.19310522      -0.77460212      -0.55746114
H       -0.60160333      -0.28314662       0.71131027
H        0.40775526      -1.46009636      -0.21522540
H        0.65714681      -0.52573669       0.37429512
H        0.41673884      -1.23481655      -0.24817622
H        0.08904105      -0.86633742       1.07319403
H       -0.92256737      -1.03055513       0.08546156
H       -0.21546331      -1.57541728       0.47944009
