5
Properties=species:S:1:pos:R:3 pbc="F F F"
H        0.00000000       0.00000000       0.00000000
H       -0.02074104      -0.97334045      -0.01546210
H        0.68353850      -0.60748839      -0.66620505
H       -0.33502379      -0.46966103      -0.78437138
H        0.16306645      -1.44505036      -0.95067400
