21
Properties=species:S:1:pos:R:3 pbc="F F F"
H        0.00000000       0.00000000       0.00000000
H       -0.93989587      -0.24138860      -0.47165081
H       -0.81604803       0.36585209       0.50352919
H       -0.66568631      -0.64286757       0.44374192
H       -0.09141183       0.03349990       1.14987922
H       -0.39670539      -0.63674605       0.43511349
H       -1.03390610      -0.12616904       1.52342200
H       -0.59857333       0.84879726       1.67851353
H       -0.22032696       0.05860193       2.02542758
H       -0.97082484       0.28456295       0.40911147
H       -0.73464715      -0.09786525       0.68577230
H       -1.28927064      -0.49710089      -0.96700317
H       -1.28394508      -0.51798451      -0.95945239
H       -0.92379045       0.78456479      -0.44964644
H       -1.06740534       0.26118499      -0.82149833
H       -1.04824293       0.24766606      -0.80891901
H       -0.23863786       0.48611298       0.25378534
H       -0.24627781       0.45221260       0.24594149
H       -0.29518986       0.86439621      -1.11809695
H       -0.31903595       0.86439621      -1.13974559
H       -0.15749341       1.00928617      -1.32408535
