5
Properties=species:S:1:pos:R:3 pbc="F F F"
H        0.00000000       0.00000000       0.00000000
H        0.83968246      -0.37845421      -0.31585881
H        0.20284593      -0.99825430       0.12516274
H       -0.14456889      -0.69681674      -0.73950672
H       -0.06955892      -0.60806775      -0.73285002
