6
Properties=species:S:1:pos:R:3 pbc="F F F"
H        0.00000000       0.00000000       0.00000000
H       -0.90169489       0.25064358      -0.26867270
H       -0.16041759       0.49897972      -0.82057685
H       -0.54328036      -0.56582880      -0.77684170
H       -0.72180909      -0.65478379       0.22990471
H       -0.41900840      -0.49040309      -0.90761912
