5
Properties=species:S:1:pos:R:3 pbc="F F F"
H        0.00000000       0.00000000       0.00000000
H       -0.72715116       0.63587439       0.12237607
H       -1.02425253      -0.25791639       0.36921549
H       -0.53992224       0.15966894       0.85808724
H       -0.06402838      -0.13990828       0.25919521
