13
Properties=species:S:1:pos:R:3 pbc="F F F"
H        0.00000000       0.00000000       0.00000000
H        0.24483983      -0.86484438      -0.37437752
H        0.15947500      -0.15966894      -1.00119793
H        1.03671193      -0.13229340      -0.35352567
H        1.05035233      -0.80253935      -1.13064098
H        0.89685750      -1.44540691      -1.91580629
H        1.87146258      -1.35645187      -1.60668516
H        1.13010454      -1.81125903      -0.98571390
H       -0.82475936      -0.36585209      -0.48912993
H        0.05948174      -0.98171508      -0.43474454
H       -1.40520644      -0.66299832      -0.57637024
H       -1.16479862       0.04608160      -1.19884157
H       -0.66195464      -0.84859848      -1.20325434
