14
Properties=species:S:1:pos:R:3 pbc="F F F"
H        0.00000000       0.00000000       0.00000000
H       -0.93989587      -0.24138860      -0.47165081
H       -0.81604803       0.36585209       0.50352919
H       -0.66568631      -0.64286757       0.44374192
H       -0.09141183       0.03349990       1.14987922
H       -0.42160162      -0.63674605       0.44626784
H       -0.14203721      -0.68566251      -0.59156770
H        0.53457326       0.13585179       1.32449949
H        0.56160802       0.11323510       1.14414859
H        0.97106606      -0.66054237       0.33322704
H        1.19302368      -1.13020337      -0.49031055
H        1.69774938      -0.29469028      -0.29239875
H        0.77619112      -0.24401364      -0.60259748
H       -0.97583050      -0.10979274       1.36344087
