8
Properties=species:S:1:pos:R:3 pbc="F F F"
H        0.00000000       0.00000000       0.00000000
H       -0.90169489       0.25064358      -0.26867270
H       -0.16041759       0.49897972      -0.82057685
H       -0.52566737      -0.56582880      -0.76395047
H       -0.73761261      -0.72549772       0.22746712
H        0.16255063      -1.18904579       0.05967826
H       -0.63611501      -1.77486658      -0.20915452
H       -0.50861084      -0.91722417      -0.75825942
