5
Properties=species:S:1:pos:R:3 pbc="F F F"
H        0.00000000       0.00000000       0.00000000
H       -0.02074104      -0.97334045      -0.01546210
H        0.70594221      -0.60748839      -0.64108789
H       -0.27917847      -0.46966103      -0.80593967
H        0.19577396      -1.44505036      -0.94364715
