5
Properties=species:S:1:pos:R:3 pbc="F F F"
H        0.00000000       0.00000000       0.00000000
H       -0.72715116       0.63587439       0.12237607
H       -1.00620604      -0.25791639       0.38944787
H       -0.50947577       0.15966894       0.87650681
H       -0.05043441      -0.13990828       0.24579693
