8
Properties=species:S:1:pos:R:3 pbc="F F F"
H        0.00000000       0.00000000       0.00000000
H        0.13252793       0.60990006       0.74734145
H       -0.23067635       0.99825430      -0.06000504
H       -0.85380286       0.44203299       0.53636330
H       -0.05285949       0.01054341       0.06135765
H       -0.92746425       0.89561391       0.89199609
H       -0.61410785       0.01510000       1.43109739
H       -0.18361977       0.42446196       0.65962881
