5
Properties=species:S:1:pos:R:3 pbc="F F F"
H        0.00000000       0.00000000       0.00000000
H       -0.53245163       0.67024595      -0.56620628
H       -1.08326697      -0.14622647      -0.27759016
H       -0.49141112      -0.22562337      -0.77613890
H       -0.33419073      -0.30907321      -0.33179092
