5
Properties=species:S:1:pos:R:3 pbc="F F F"
H        0.00000000       0.00000000       0.00000000
H        0.93511528      -0.39891118      -0.14054634
H        0.23772293      -0.69736302      -0.83184534
H        0.08621967      -0.92486274       0.09625560
H        0.05892622      -0.60497463      -0.33591363
