5
Properties=species:S:1:pos:R:3 pbc="F F F"
H        0.00000000       0.00000000       0.00000000
H       -0.02074104      -0.97334045      -0.01546210
H        0.74803704      -0.60748839      -0.58857334
H        0.38921881      -0.46966103      -0.75893879
H        0.75623721      -0.52573669      -0.00663645
