5
Properties=species:S:1:pos:R:3 pbc="F F F"
H        0.00000000       0.00000000       0.00000000
H       -0.81573808      -0.52769721      -0.06456009
H       -0.72368902       0.25064358       0.60125935
H       -0.77070338       0.46354809      -0.49443242
H       -0.77070338       0.37459308       0.52802098
