5
Properties=species:S:1:pos:R:3 pbc="F F F"
H        0.00000000       0.00000000       0.00000000
H       -0.21671417       0.94706190      -0.06457304
H       -0.93065470       0.29845181      -0.31326061
H       -0.09874762       0.45974207      -1.01994240
H       -0.33046424      -0.03923765      -0.21658224
