5
Properties=species:S:1:pos:R:3 pbc="F F F"
H        0.00000000       0.00000000       0.00000000
H        0.69739223       0.29845181      -0.69129914
H       -0.22089797       0.72994137      -0.53675526
H       -0.09874678      -0.25776950      -1.02311909
H       -0.01513714       0.55622131      -0.86238772
