5
Properties=species:S:1:pos:R:3 pbc="F F F"
H        0.00000000       0.00000000       0.00000000
H        0.65604281      -0.46966103       0.54505712
H       -0.33038598      -0.69927454       0.71106839
H        0.16656575      -0.86857224      -0.26402014
H        0.11850548      -1.01458311      -0.09338051
