5
Properties=species:S:1:pos:R:3 pbc="F F F"
H        0.00000000       0.00000000       0.00000000
H       -0.93989587      -0.24138860      -0.47165081
H       -0.81604803       0.36585209       0.50352919
H       -0.73224938      -0.58582085       0.41707158
H       -0.86581415      -0.03305909      -0.44077861
