6
Properties=species:S:1:pos:R:3 pbc="F F F"
H        0.00000000       0.00000000       0.00000000
H        0.54069358       0.79439902       0.36042264
H       -0.47699994       0.88335401       0.45896634
H       -0.14050928       0.24747962      -0.19715759
H       -0.29396552       1.63076258      -0.22015283
H        0.33194882       0.83636355      -0.04555231
