8
Properties=species:S:1:pos:R:3 pbc="F F F"
H        0.00000000       0.00000000       0.00000000
H        0.83968246      -0.37845421      -0.31585881
H       -0.46352738      -0.91159266      -0.08640061
H        0.39702126      -0.33235219       0.88613778
H        0.41062781      -1.30586112      -0.41152680
H       -0.16868562      -1.12943113       0.81563902
H        1.25405931      -0.69820428       0.45606580
H        0.75110453      -1.52993536       0.39843830
