8
Properties=species:S:1:pos:R:3 pbc="F F F"
H        0.00000000       0.00000000       0.00000000
H        0.88292891      -0.28314662      -0.29719594
H        0.88292891      -0.83936793       0.56532466
H        0.02587779      -0.63587439       0.73692262
H        0.31991488       0.07320553       1.33592916
H        1.22497904      -0.10755670       1.10893762
H        1.26492393       0.50234336       0.35098827
H        0.35934579       0.78548998       0.56965935
