8
Properties=species:S:1:pos:R:3 pbc="F F F"
H        0.00000000       0.00000000       0.00000000
H       -0.39122835      -0.01598554      -0.83368021
H        0.73845631       0.64286757      -0.30777836
H        0.22305673       1.48042953      -0.01421914
H       -0.44542098       0.89468008       0.23339164
H       -0.19052753       1.49732852      -0.89553821
H        0.33960721       0.65976655      -1.16156626
H       -0.82782108       0.91157907      -0.66189909
