13
Properties=species:S:1:pos:R:3 pbc="F F F"
H        0.00000000       0.00000000       0.00000000
H        0.36329272       0.89468008       0.34769225
H        0.39291257       0.22961354      -0.91990280
H       -0.46726900       0.75556511      -1.11170089
H        0.75986433       1.07841265      -0.61502993
H       -0.92960685       0.39891118      -0.17327693
H       -0.49877614       1.23064220       0.09256005
H       -0.58770114       0.61674964      -1.05854964
H        0.04538059       1.57758570      -0.91281706
H        0.44278979       2.15743637      -1.01619375
H       -0.01295117       1.47194219      -1.53625011
H        0.43650940       1.98937893      -1.72357905
H       -0.29204786       1.28679740      -0.96490741
