8
Properties=species:S:1:pos:R:3 pbc="F F F"
H        0.00000000       0.00000000       0.00000000
H       -0.47549847       0.19475858       0.88842231
H        0.59274840       0.81647241       0.18800545
H       -0.62283278       0.61471456      -0.53621757
H        0.16055730       0.90383852       1.09016383
H       -1.09973300       0.83762616       0.38804603
H        0.05556786       1.42564046      -0.32104528
H       -0.46367726       1.54670608       0.58978754
