9
Properties=species:S:1:pos:R:3 pbc="F F F"
H        0.00000000       0.00000000       0.00000000
H       -0.67230010      -0.60990006       0.35227177
H       -1.21570075       0.22766191       0.59003103
H       -0.18807483      -0.62771249       1.25699961
H       -0.52395588       0.84237647       0.14625299
H        0.56994992      -0.10176092       0.80744720
H       -0.72376257       0.12594819       1.56211448
H        0.04456556       0.73580104       1.08273804
H       -0.45887530       0.68786371       0.31294119
