8
Properties=species:S:1:pos:R:3 pbc="F F F"
H        0.00000000       0.00000000       0.00000000
H        0.44047090       0.80291802      -0.09821343
H       -0.41513640       0.34709048      -0.80947566
H        0.68381888      -0.46966103      -0.50977558
H        1.14617014       0.37142843      -0.70577341
H       -0.10702839       1.03253150      -0.93537885
H        0.24517393      -0.14795759      -1.41959167
H        0.59463888       0.56618702      -1.54910398
