8
Properties=species:S:1:pos:R:3 pbc="F F F"
H        0.00000000       0.00000000       0.00000000
H        0.38154608      -0.49897972      -0.74397767
H       -0.11469326      -0.91159266       0.45734900
H        0.37633452      -1.29004693      -0.29346728
H        1.28199255      -1.20109189       0.18107924
H        0.81935000      -0.76131546       0.91634750
H        0.88545924       0.11800810       0.38742349
H        1.34286463      -0.26922616      -0.31198183
