9
Properties=species:S:1:pos:R:3 pbc="F F F"
H        0.00000000       0.00000000       0.00000000
H        0.54628479      -0.64623839      -0.66938484
H        0.65947556       0.12836373      -1.24838424
H       -0.02487904       0.71418458      -0.75665605
H        0.82189578       0.37845421       0.35961196
H        1.44083238      -0.20736665      -0.21227542
H        1.52392936       0.49421582      -0.83341944
H        0.97559023       1.10411584      -0.30862701
H        0.20395863       0.72566164      -0.76624912
