21
Properties=species:S:1:pos:R:3 pbc="F F F"
H        0.00000000       0.00000000       0.00000000
H        1.00909960       0.15966894       0.09771150
H        1.15822136      -0.51057702      -0.66508400
H        0.21488059      -0.39256892      -0.87542439
H        1.27272689       0.32115400      -1.15820956
H        1.11170840       0.97332972      -0.42715847
H        0.31200975       0.43916211      -1.37226474
H        0.11134970       1.02674568      -0.65021235
H        0.17435703       0.83756196      -0.56693327
H       -0.57345945       1.30760944      -0.45967582
H       -0.83035672       0.81191480      -1.12484169
H       -0.88637996       1.35986233      -1.16974902
H       -1.20495892       0.80693889      -0.29974300
H        0.04872008      -0.61939394       0.34471023
H       -0.31628838      -0.90259868       0.64796853
H        0.23839447      -1.34194183      -0.35904545
H        0.55979335      -0.92132461       1.27745819
H        1.08905888      -1.35701394      -0.18498227
H        1.03142929      -0.39362741       0.60876089
H       -0.27381063      -1.92512441       0.16515619
H        0.61164862      -2.04313254       0.55257964
