8
Properties=species:S:1:pos:R:3 pbc="F F F"
H        0.00000000       0.00000000       0.00000000
H        0.24483983      -0.86484438      -0.37437752
H        0.01616733       0.31530851      -0.92107552
H        0.29715812      -0.44547620      -1.36711133
H       -0.64130461      -0.66331470      -1.50816083
H       -0.97105587      -0.29845181      -0.14594820
H       -0.96454662       0.05111665      -1.06847537
H       -0.72049594      -1.16329622      -0.55431426
