8
Properties=species:S:1:pos:R:3 pbc="F F F"
H        0.00000000       0.00000000       0.00000000
H        0.65604281      -0.46966103       0.54505712
H       -0.05966580      -0.99561262       1.05931401
H        0.79751730      -1.10553539      -0.17862076
H        0.13715515      -0.66108263      -0.70158333
H        0.11366725      -1.72024989       0.27722898
H       -0.60295570      -1.32133865      -0.33973566
H       -0.70118982      -0.58582085       0.46740833
