9
Properties=species:S:1:pos:R:3 pbc="F F F"
H        0.00000000       0.00000000       0.00000000
H        0.30968034       0.89379078      -0.23086154
H       -0.24994391       0.98274577      -1.08656693
H       -0.47438622      -0.01689900      -0.85013705
H        0.80302769      -0.40936196      -0.36828002
H        0.38944343      -0.42626095      -1.24959910
H        0.77419996       0.43858343      -1.47778201
H        1.19376993       0.42077097      -0.54131645
H        0.58234602       0.55125618      -1.50422001
