8
Properties=species:S:1:pos:R:3 pbc="F F F"
H        0.00000000       0.00000000       0.00000000
H       -0.50007260       0.47200781      -0.61275923
H       -0.56273150       0.34709048       0.71478832
H       -1.05572021       0.93028128       0.11070925
H        0.11620098       1.22566843      -0.59653133
H       -0.41478413       1.72071648       0.12893820
H        0.11875123       1.16449523       0.80664152
H        0.61002553       0.72668874       0.07816672
