8
Properties=species:S:1:pos:R:3 pbc="F F F"
H        0.00000000       0.00000000       0.00000000
H        0.07742673      -0.40936196      -0.88005048
H        0.49992681       0.88051391      -0.37268713
H       -0.82688284       0.40936196      -0.31104404
H        0.60444987       0.41085288      -1.21918237
H       -0.20863718       0.85062933      -1.52503693
H       -0.77961087       0.05418614      -1.20243764
H       -0.35032326       1.25896811      -0.65888333
