9
Properties=species:S:1:pos:R:3 pbc="F F F"
H        0.00000000       0.00000000       0.00000000
H        0.42017129      -0.49897972       0.72286665
H        0.05628958      -0.73181123      -0.63980061
H        0.26069573      -1.28347814       0.06887394
H        1.35642302      -0.26936617       0.37068188
H        1.20384216      -1.08871961      -0.28590441
H        0.99943602      -0.53705263      -0.99457896
H        1.07550955       0.31382462      -0.35666746
H        0.97988003       0.08895500      -0.29196930
