8
Properties=species:S:1:pos:R:3 pbc="F F F"
H        0.00000000       0.00000000       0.00000000
H       -0.01035373      -0.77460212      -0.58986890
H       -0.74892592      -0.45929360      -1.14046192
H        0.53890663      -0.33482566      -1.26289988
H       -0.16646677      -0.14398509      -1.85417259
H       -0.76598114       0.28314662      -0.53024691
H        0.61588693       0.49504808      -0.65493083
H       -0.20593914       0.65062505      -1.29283714
