8
Properties=species:S:1:pos:R:3 pbc="F F F"
H        0.00000000       0.00000000       0.00000000
H        0.75986940       0.40936196      -0.45064643
H        0.07785529       1.07960796      -0.82340765
H       -0.66538048       0.52382916      -0.52883786
H        0.81594944       0.96514076       0.34686586
H       -0.57899481       1.13854373       0.28846711
H        0.00000000       0.58319080       0.77971113
H        0.19743973       1.57832015      -0.10115707
