8
Properties=species:S:1:pos:R:3 pbc="F F F"
H        0.00000000       0.00000000       0.00000000
H       -0.04850490       0.68549418       0.68978679
H       -0.89212191       0.11800810      -0.37182432
H       -0.91588050       0.88937658       0.30474800
H       -1.33930397       0.19255984       0.92803192
H       -0.31945810      -0.77136850       0.59687608
H       -0.45706570      -0.02527866       1.27769303
H       -1.25840068      -0.60453981       0.25832504
