21
Properties=species:S:1:pos:R:3 pbc="F F F"
H        0.00000000       0.00000000       0.00000000
H       -0.02074104      -0.97334045      -0.01546210
H        0.74756718      -1.13300943      -0.67692423
H        0.69057566      -0.05067664      -0.68454224
H        0.10671002      -1.18368602      -1.40822101
H       -0.61553955       0.01689900      -0.75424558
H        0.13542324      -0.07205600      -1.44812298
H       -0.65677190      -1.00750816      -0.80129677
H        0.15743104      -0.16205871      -1.49205995
H        0.43927437      -2.53912687      -1.95793056
H       -0.10353339      -2.27493501      -2.78792238
H        0.79427356      -1.63246989      -1.96104586
H       -0.23347217      -2.10763741      -1.31407285
H        1.47293544      -1.76757443      -1.43633664
H        0.87228912      -1.43522227      -0.67338842
H       -0.86544067      -1.81138694      -2.28004026
H       -0.41329250      -0.96258783      -2.43223429
H        0.45828667      -1.39407742      -2.76009154
H        0.03068617      -1.21323144      -1.60270333
H       -0.98754930      -1.29817688      -3.77670765
H       -0.98754930      -1.29817688      -3.77670765
