9
Properties=species:S:1:pos:R:3 pbc="F F F"
H        0.00000000       0.00000000       0.00000000
H        0.54069358       0.79439902       0.36042264
H       -0.29010814       1.35062027       0.59217727
H       -0.88128895       0.71474588       0.15146202
H        0.50968933       0.38503706       1.24332833
H       -0.29010814       0.95170909       1.53779554
H       -0.82146013       0.24508485       1.00228500
H       -0.07210767       0.21576616      -0.05902754
H        0.07096988      -0.18640473       0.73637271
