21
Properties=species:S:1:pos:R:3 pbc="F F F"
H        0.00000000       0.00000000       0.00000000
H        0.05739931      -0.52769721       0.81627315
H        0.36690205       0.83756196       0.46604359
H        0.10695996       0.38389546       1.28517222
H       -0.83762544       0.60173392       1.37663686
H       -1.09486771      -0.25590849       0.87503952
H       -1.00669730       0.19475858      -0.04419934
H       -0.94255471      -0.29808366       0.84260422
H        0.72217250      -0.75778723       0.71635878
H       -0.24340385      -0.63977915       0.67396486
H        1.08772671      -1.63447666       0.32763040
H        0.12401199      -1.55008340       0.21720999
H       -0.70374936       1.16662431       0.30512634
H        0.82887846      -0.42977703       0.80283111
H        1.73262596      -2.55109096      -0.05483207
H        1.73262596      -2.55109096      -0.05483207
H        2.33796835      -2.49767494       0.77222967
H        1.71734047      -2.57656026      -0.01649088
H        1.73262596      -2.55109096      -0.05483207
H        1.73262596      -2.55109096      -0.05483207
H        2.81893706      -2.15219092       0.64711690
