8
Properties=species:S:1:pos:R:3 pbc="F F F"
H        0.00000000       0.00000000       0.00000000
H        0.49089283       0.77460212       0.32722577
H       -0.32484525       1.30229926       0.26266569
H       -0.75914216       0.60548252      -0.35309118
H        0.38570943       0.29845181      -0.90303850
H        0.92024505       1.02524567      -0.50996912
H        0.09231821       1.60075104      -0.62628031
H       -0.41296616       0.82614899      -1.08112228
