8
Properties=species:S:1:pos:R:3 pbc="F F F"
H        0.00000000       0.00000000       0.00000000
H       -0.27385142       0.28314662      -0.89044607
H       -0.68959934      -0.59670103      -0.92334968
H       -0.26475534      -0.92909771      -0.12142062
H       -1.08231199      -0.67845416       0.34423995
H       -1.45507514      -0.46061566      -0.52848840
H       -0.80175304       0.25064355       0.42250264
H       -1.12065125       0.44604126      -0.40934661
