8
Properties=species:S:1:pos:R:3 pbc="F F F"
H        0.00000000       0.00000000       0.00000000
H        0.15274149      -0.33235219      -0.95892441
H        0.29618844       0.87984765      -0.29360071
H        0.33457601       0.65806460      -1.34640098
H        0.91000670      -0.11162928       0.08811630
H        1.10046327      -0.51712316      -0.83344936
H        1.15665913       0.74601912      -0.13978648
H        1.26955128       0.43071061      -1.05406046
