8
Properties=species:S:1:pos:R:3 pbc="F F F"
H        0.00000000       0.00000000       0.00000000
H        0.47219095      -0.55577880       0.64514065
H        0.00925052      -0.24047029       1.44158757
H       -0.61735135       0.18477097       0.72993010
H       -0.07035124       0.97938108       0.86201501
H        0.44684720       0.48040137       1.51896703
H        0.99532354       0.23883134       0.85247594
H        0.51867592       0.69623446       0.14025617
