8
Properties=species:S:1:pos:R:3 pbc="F F F"
H        0.00000000       0.00000000       0.00000000
H        0.58115071      -0.52769721      -0.57607329
H        0.06601238      -1.34135795      -0.43237391
H        1.03226447      -0.71246815       0.26678908
H        0.50456518      -1.46412635       0.33665460
H       -0.54845446      -0.77460212       0.21737127
H        0.38915437      -0.21348843       0.80110133
H       -0.12758225      -0.84941179       0.86185884
