8
Properties=species:S:1:pos:R:3 pbc="F F F"
H        0.00000000       0.00000000       0.00000000
H        0.36038706      -0.22961354      -0.93312520
H       -0.64558697      -0.79439902      -0.07396999
H       -0.27007863      -0.97916996      -0.95312536
H       -0.89736307      -0.31808734      -1.29597366
H       -1.17832935      -0.15841840      -0.32186508
H       -0.25447902       0.43146908      -1.29777622
H       -0.64703912       0.63587439      -0.35364532
