9
Properties=species:S:1:pos:R:3 pbc="F F F"
H        0.00000000       0.00000000       0.00000000
H        0.97460508       0.08895500       0.30912116
H       -0.31766176       0.08895500       0.97185487
H        0.05772869       0.96543115      -0.11256531
H        0.67983025       0.07114254       1.21272063
H        1.00111914       1.10133469       0.14266337
H       -0.35753596       1.00829482       0.93232906
H        0.58766246       1.05897141       1.16056752
H       -0.24088170       1.02158630       0.92271531
