14
Properties=species:S:1:pos:R:3 pbc="F F F"
H        0.00000000       0.00000000       0.00000000
H       -0.90169489       0.25064358      -0.26867270
H        0.34122458       0.43977645      -0.79888880
H       -1.07465947      -0.69146013      -0.63724804
H       -0.64229023       0.63453501      -1.01818693
H       -0.17504042      -0.98991191      -0.24362904
H        0.21066901      -0.69146013      -1.14666748
H       -0.78840232      -0.37770310      -1.40655243
H        0.35784483       0.29895663      -0.74474561
H        0.04990080       0.70528162      -1.66941595
H        0.05109739      -0.42278069       0.37392980
H        0.22351481      -1.26825833       0.69607496
H        0.77250957      -1.25318623       0.02336949
H        0.92776430      -0.51137209       0.44735393
