8
Properties=species:S:1:pos:R:3 pbc="F F F"
H        0.00000000       0.00000000       0.00000000
H       -0.93989587      -0.24138860      -0.47165081
H       -0.41587076       0.52595156       0.77701372
H       -0.16438043      -0.83756196       0.56990600
H       -0.66209507      -0.25174111       1.24991918
H       -1.26400876       0.33119297       0.23290431
H       -1.57263207      -0.37612802       0.79300106
H       -1.15213609      -1.07652605       0.17767712
