8
Properties=species:S:1:pos:R:3 pbc="F F F"
H        0.00000000       0.00000000       0.00000000
H       -0.96783787       0.05067664       0.09371616
H       -0.05257314      -0.97187352       0.02754727
H       -1.06733680      -0.98968595      -0.12497014
H       -0.03412465      -0.05067664       0.97176558
H       -1.13923061      -1.04310191       0.89743000
H       -1.04886520      -0.07386565       0.91925067
H       -0.11500490      -1.06091440       0.96042520
