8
Properties=species:S:1:pos:R:3 pbc="F F F"
H        0.00000000       0.00000000       0.00000000
H        0.19410905      -0.89379078       0.33394706
H       -1.00993705      -0.12438690       0.13371208
H       -0.77582729      -1.05179381       0.50577778
H        0.09562084       0.34709048       0.90467989
H       -0.97973675       0.20394191       0.99372721
H       -0.86690283      -0.73816180       1.38492155
H        0.08867389      -0.58668101       1.27543378
