9
Properties=species:S:1:pos:R:3 pbc="F F F"
H        0.00000000       0.00000000       0.00000000
H        0.42330277      -0.73181123      -0.48304045
H        0.16975430      -1.36768556       0.20937407
H       -0.41027588      -0.89148015      -1.06008148
H       -0.73519963      -1.52735448      -0.39815307
H       -0.82226396      -0.18477097      -0.48765001
H       -0.19811492      -0.66108263       0.68686336
H       -1.15554881      -0.71642858       0.17615789
H        0.12090242      -1.40934634       0.05042714
