9
Properties=species:S:1:pos:R:3 pbc="F F F"
H        0.00000000       0.00000000       0.00000000
H        0.54069358       0.79439902       0.36042264
H       -0.29010814       1.35062027       0.59217727
H       -0.88233072       0.74072021       0.11746126
H        0.50855869       0.33085093       1.27552605
H       -0.29010814       0.91913068       1.52338111
H       -0.82368135       0.24174049       0.95151186
H       -0.07314944       0.24174049      -0.09302829
H       -0.08262211      -0.30502346       0.83481079
