8
Properties=species:S:1:pos:R:3 pbc="F F F"
H        0.00000000       0.00000000       0.00000000
H        0.59380746      -0.49897972      -0.58861941
H        0.16886687      -0.06749013      -1.41721225
H       -0.46725032       0.36585209      -0.83734900
H       -0.47672009      -0.86188912      -1.49118221
H       -0.05397773      -1.29337871      -0.63988715
H       -1.09291351      -0.39222810      -0.90144920
H       -0.66957784      -0.77068233      -0.11048764
