8
Properties=species:S:1:pos:R:3 pbc="F F F"
H        0.00000000       0.00000000       0.00000000
H       -0.72715116       0.63587439       0.12237607
H       -1.34832215      -0.02520823       0.47618008
H       -0.67536730      -0.67024595       0.38467294
H       -1.62217355      -0.30835485      -0.41426599
H       -0.28101996      -0.18477097      -0.91375512
H       -0.98597050       0.47631165      -0.79511529
H       -0.84999067      -0.97860080      -0.50274098
