8
Properties=species:S:1:pos:R:3 pbc="F F F"
H        0.00000000       0.00000000       0.00000000
H        0.11786898      -0.15148079      -0.95457917
H        0.71153617      -0.66108263       0.06889832
H        0.76240164      -0.77909070      -0.89626884
H        0.07413071      -1.46458483      -0.82962328
H        0.04393512      -1.43245113       0.18125239
H       -0.66661620      -0.76776809      -0.96769708
H       -0.70007795      -0.74740851       0.06778885
