8
Properties=species:S:1:pos:R:3 pbc="F F F"
H        0.00000000       0.00000000       0.00000000
H        0.52691501       0.55577880      -0.60127473
H       -0.07277602       0.29158694      -1.39114642
H       -0.59488559      -0.25064358      -0.72893745
H       -1.14334011       0.52395856      -0.51156616
H       -0.64835858       1.08598590      -1.08955276
H       -0.02969247       1.24803257      -0.35773692
H       -0.65734535       0.57219744       0.20210770
