8
Properties=species:S:1:pos:R:3 pbc="F F F"
H        0.00000000       0.00000000       0.00000000
H        0.07742673      -0.40936196      -0.88005048
H        0.49992681       0.88051391      -0.37268713
H       -0.82688284       0.40936196      -0.31104404
H        0.57467818       0.41085288      -1.22232914
H       -0.26261127       0.82021487      -1.50416279
H       -0.74589324       0.03041449      -1.15718198
H       -0.35032326       1.25896811      -0.65888333
