11
Properties=species:S:1:pos:R:3 pbc="F F F"
H        0.00000000       0.00000000       0.00000000
H       -0.96783787       0.05067664       0.09371616
H       -0.05157401      -0.97187352       0.02937531
H       -0.10551388      -1.02528942      -0.99412906
H       -0.11930381      -0.01689900      -0.96619976
H       -1.06926751      -0.88291854       0.12791902
H       -1.18857133      -0.86601955      -0.83828074
H       -1.14987230       0.15838760      -0.78912479
H       -1.11952138      -0.90090251      -0.89594227
H       -1.09572494      -0.53954387       0.02249944
H       -1.09572494      -0.53954387       0.02249944
