8
Properties=species:S:1:pos:R:3 pbc="F F F"
H        0.00000000       0.00000000       0.00000000
H        0.63772744       0.77136850       0.22719663
H       -0.80183977       0.55622131       0.31779659
H       -0.84755838       0.99599779      -0.54970986
H       -0.14403553       0.46354809      -0.90426809
H       -0.27444279       1.74965847      -0.32256457
H        0.52256203       1.24928522      -0.58428043
H       -0.19774497       1.35062027       0.55721998
