8
Properties=species:S:1:pos:R:3 pbc="F F F"
H        0.00000000       0.00000000       0.00000000
H       -0.43620220       0.58582085      -0.72101700
H       -1.33797848       0.50142765      -0.36361217
H       -0.95655680      -0.10847241       0.29258931
H        0.14152871       0.77136850       0.66203034
H       -1.13305759       1.28716481       0.34684676
H       -0.20368016       1.37611985      -0.07937911
H       -0.79188174       0.66289610       0.94924498
