8
Properties=species:S:1:pos:R:3 pbc="F F F"
H        0.00000000       0.00000000       0.00000000
H        0.46564069       0.84879911      -0.10382564
H       -0.44328880       0.34709048      -0.79440808
H        0.66550744      -0.46966103      -0.53345966
H        1.14958334       0.41730952      -0.73577750
H       -0.11090127       1.07841265      -0.92126113
H        0.20702052      -0.11645761      -1.43903565
H        0.60208404       0.64692307      -1.57294297
