10
Properties=species:S:1:pos:R:3 pbc="F F F"
H        0.00000000       0.00000000       0.00000000
H       -0.90169489       0.25064358      -0.26867270
H        0.34122458       0.43977645      -0.79888880
H       -1.06161797      -0.69146013      -0.64309108
H        0.13162556      -0.43691292      -1.28961062
H       -0.20835572      -0.98991191      -0.15709329
H       -0.81880951      -0.17272106      -1.57280612
H       -0.67523104       0.80224526      -1.13354170
H        0.18760750      -0.60529816      -1.08413839
H        0.24654102       0.55160165      -0.94492847
