8
Properties=species:S:1:pos:R:3 pbc="F F F"
H        0.00000000       0.00000000       0.00000000
H       -0.02074104      -0.97334045      -0.01546210
H        0.79207319      -1.13300943      -0.62140161
H        0.73689234      -0.05067664      -0.63441515
H        0.17653364      -1.14990842      -1.37564719
H       -0.56111652       0.01689900      -0.79556495
H        0.23666888      -0.07205600      -1.43505645
H       -0.61981034      -0.95497453      -0.80438656
