8
Properties=species:S:1:pos:R:3 pbc="F F F"
H        0.00000000       0.00000000       0.00000000
H        0.02715597      -1.02162731       0.09414954
H        0.25303990      -0.05067664      -0.93886292
H       -0.93330032      -1.03943980      -0.26714015
H       -0.66873980      -0.20215744      -1.21352017
H       -0.92488444      -0.07897693      -0.42683083
H        0.31298885      -1.07230389      -0.83525479
H       -0.59492111      -1.15669715      -1.17677832
