8
Properties=species:S:1:pos:R:3 pbc="F F F"
H        0.00000000       0.00000000       0.00000000
H        0.13252793       0.60990006       0.74734145
H       -0.42827132       0.79439902      -0.48871025
H       -0.27766806       1.35062027       0.36056027
H        0.67734814       1.54537880       0.03909957
H        0.93991095       0.26419187      -0.31637624
H        1.07892013       0.72890639       0.51390135
H        0.56903756       1.05880201      -0.73958838
