8
Properties=species:S:1:pos:R:3 pbc="F F F"
H        0.00000000       0.00000000       0.00000000
H       -0.92501378       0.29845181       0.32954502
H       -0.22925681      -0.90665692       0.27106357
H       -1.09704828      -0.59134841       0.58022261
H        0.18526685      -0.74698800       1.19626617
H       -0.57852548       0.49321038       1.27576852
H       -0.78053719      -0.46696150       1.54855752
H        0.26498437       0.25611511       0.99184114
