17
Properties=species:S:1:pos:R:3 pbc="F F F"
H        0.00000000       0.00000000       0.00000000
H       -0.49101692      -0.19475858      -0.87994057
H        0.07288510       0.55264992      -1.30032015
H       -0.64284182       0.68549418       0.25478023
H        0.00526023       1.38231087      -0.12958169
H       -1.12422180       0.46632403      -0.54815400
H       -0.67576742       1.22289586      -1.09148133
H        0.65654945       0.67323095      -0.27480206
H        0.13467467       0.54246521      -1.21004224
H        1.09546900       0.63625067       0.28271905
H        1.09441066       0.61164671       0.28137472
H        1.15905333       1.11737216      -0.09919962
H        1.16790831       1.15758944      -0.13978465
H        1.15414870       0.26493871      -0.01012837
H        0.04822847       1.12030637      -0.91512990
H        0.11230183       1.12030637      -0.90949279
H       -0.55284786       0.11162928      -0.72817308
