20
Properties=species:S:1:pos:R:3 pbc="F F F"
H        0.00000000       0.00000000       0.00000000
H        0.87747955       0.49504808      -0.19565487
H        1.32394314      -0.06117323      -0.93363321
H       -0.00888455      -0.83173102      -0.50616747
H        1.42454743       0.51194710       0.60963517
H        2.24061728       0.01296738       0.42767307
H        2.30296230      -0.82459462       1.01752627
H        0.01293887      -1.64820337       0.11529893
H        1.41236854      -0.87801051       1.52478695
H        2.33859110      -1.59596312       0.34147507
H        0.82900864      -2.14718318      -0.06666318
H        2.16791105      -0.37648174      -0.56436384
H        1.47517586      -2.12191463       0.51814735
H        0.77069396      -0.88240767      -1.08733034
H        0.94525683       0.04228607       1.31515622
H        1.26913559      -1.67701781      -0.82615697
H        0.06599791      -0.25064358       0.93855369
H        2.25785422      -1.28065467      -0.57619762
H        0.87611401      -1.65261269       1.27885294
H        0.03799035      -1.22251713       0.99088305
