20
Properties=species:S:1:pos:R:3 pbc="F F F"
H        0.00000000       0.00000000       0.00000000
H       -0.43620220       0.58582085      -0.72101700
H       -1.39783072       0.67021406      -0.59370077
H       -1.60121131       0.17123434       0.21729648
H       -0.76940036      -0.22961354       0.63923740
H       -0.32266259       0.03289741      -1.64053416
H       -1.25891435      -0.19671613      -1.99271894
H       -1.89900732       0.20666596      -1.36003554
H        0.16620103      -0.84379196      -1.42663693
H       -0.44251207      -1.57560325      -1.63153124
H        0.35247484      -0.81366080      -0.40221706
H       -2.20992446      -0.56057692       0.01240218
H       -2.40656829      -0.50716102      -0.99348140
H       -1.31435204      -1.22851276      -1.89130831
H       -1.74613070      -1.39230800       0.21533030
H       -2.02256298      -1.44635129      -1.25960875
H       -0.14154091      -1.54547203       0.00822383
H       -1.67285287      -1.89128768      -0.61756253
H       -0.80384237      -1.16269445       0.55102974
H       -0.62412131      -2.01537967      -0.78201634
