20
Properties=species:S:1:pos:R:3 pbc="F F F"
H        0.00000000       0.00000000       0.00000000
H       -0.58002573       0.67024595       0.51736289
H       -0.09239724       1.50197697       0.65338820
H       -0.79824799       0.29179174       1.38754249
H        0.84073150       0.43977645      -0.21869659
H        0.10965680       1.61998510       1.59853852
H       -0.30472630       0.86632442       2.05498457
H        0.42930573       0.31010312       2.50790691
H        0.73461640       1.35868430       0.27410790
H        1.12981021       1.56656921       1.69732034
H        1.33266902       0.79196709       2.25130653
H        1.44802105       1.44763935       1.00654554
H        1.89013362       0.18206704       1.73621821
H        1.34260464      -0.73958081       1.61413360
H        0.16349947      -0.77460212       0.56685138
H       -0.31984937      -0.62312132       1.39840913
H        1.55043125      -0.02988458       0.25438440
H        0.38348109      -0.60622233       2.07153726
H        1.92507815       0.59884024       1.00235903
H        1.15649486      -0.82397401       0.66213471
