20
Properties=species:S:1:pos:R:3 pbc="F F F"
H        0.00000000       0.00000000       0.00000000
H       -0.61304885      -0.15966894      -0.80746567
H       -0.35345641       0.74740851       0.60808963
H        0.01941228       0.06994461      -1.58244586
H       -1.13592052       1.09449899       0.14404324
H       -0.36941299       0.84454674      -2.02614331
H       -1.36037552       0.53827769      -0.68876028
H       -0.92983329       2.06257439      -0.12740076
H        0.33779404       1.43290269       0.62629187
H        0.91337818       0.28778309      -1.26396179
H       -0.98100704       2.11325097      -1.09841776
H        0.32183746       1.53004098      -2.00794101
H       -1.23453009       1.18114519      -1.47882867
H        0.91337818       0.19882809      -0.24150836
H       -0.03907976       2.26185226      -1.47666693
H        1.12763906       1.18295050      -1.58571720
H       -0.02928400       2.24734545       0.19342873
H        1.28152227       1.70890212      -0.71795058
H        1.11908734       1.09261882       0.08542082
H        0.53383482       2.34624553      -0.69391048
