21
Properties=species:S:1:pos:R:3 pbc="F F F"
H        0.00000000       0.00000000       0.00000000
H        0.36925858       0.05341591      -0.95609558
H       -0.46352738      -0.91159266      -0.08640061
H       -0.75546783       0.60990006       0.07315227
H       -1.47713566      -0.82263768       0.04779753
H       -1.60700059       0.13782519       0.14110911
H       -1.91471183      -1.18848979      -0.80543351
H       -0.32240853      -1.29004693      -0.97235709
H       -2.34802032      -0.41388768      -1.20580363
H       -2.14928913       0.38846877      -0.62776124
H       -0.76949865       1.16567886      -0.72620618
H        0.22958568      -0.61980098      -1.51952863
H       -1.63309360       1.08528554      -1.17668068
H       -0.11594918       0.86988831      -1.34503019
H       -1.18207037      -1.44152772      -1.40374553
H       -0.33935204      -0.36915740      -2.26889420
H       -0.51967239       0.63676560      -2.17440987
H       -1.20401812      -0.80893385      -2.18516827
H       -1.93941021      -0.26240689      -2.07652283
H       -1.47318053       0.78824639      -2.04816866
H       -1.52314889       0.61744076      -2.05092049
