20
Properties=species:S:1:pos:R:3 pbc="F F F"
H        0.00000000       0.00000000       0.00000000
H        0.02715597      -1.02162731       0.09414954
H        0.30796534       0.25064358      -0.88904220
H       -0.93487316      -1.32007909       0.29100028
H       -0.43922627       0.69042003      -1.33217001
H       -1.22968531      -1.84777629      -0.47233608
H       -0.90844220       0.31530851       0.15288648
H       -0.49279296      -1.89845288      -1.10675120
H       -1.97811556      -1.37811530      -0.88139772
H       -1.20848536       0.74109668      -0.73741519
H       -1.68407071      -1.14850175      -1.83750391
H        0.29087168      -1.40008152      -0.76333940
H       -0.70091200       0.13464123      -2.08761120
H       -0.05112624      -0.65975779      -2.09331346
H       -0.70913869      -1.49489522      -1.90975893
H       -2.18937564      -0.45646745      -0.36172312
H       -1.55669868      -0.50360668       0.28554347
H        0.50109971      -0.66827029      -1.37023115
H       -1.93985438       0.21339947      -1.10442472
H       -1.67613864      -0.16505474      -1.96191359
