21
Properties=species:S:1:pos:R:3 pbc="F F F"
H        0.00000000       0.00000000       0.00000000
H       -0.51304650      -0.77136850      -0.44169885
H       -0.30282402      -1.62016761      -0.01343781
H        0.38879204      -1.48940194       0.80429983
H        0.53883862      -0.36585209       0.79317653
H        0.12393898      -2.20335841      -0.66598874
H        0.59511763       0.43977645      -0.63284487
H        0.44590819      -1.33508837       0.79562360
H        0.58075672      -0.08792076      -1.45100760
H       -0.21357828      -0.89575541      -1.41543937
H        0.47023141      -0.21026123      -1.51821482
H       -0.22162783      -0.08792076      -0.58261096
H        0.17125319      -1.70831037      -1.56377077
H       -0.53768170      -0.67808408      -0.69143099
H        1.11422694      -2.32774520      -0.42686248
H        1.72795630      -1.89625561      -1.12720299
H        2.18802118      -1.14259493      -0.71684122
H        1.98474240      -1.19327152       0.23403758
H        1.18636286      -1.48025084      -1.74522758
H        1.92591310      -0.35582238      -1.11762309
H        1.23358977      -1.85808420       0.41766804
