20
Properties=species:S:1:pos:R:3 pbc="F F F"
H        0.00000000       0.00000000       0.00000000
H        0.07742673      -0.40936196      -0.88005048
H        0.42326692       0.99041677      -0.06361634
H       -0.95310330       0.11800810       0.16040275
H        0.77274448       1.07481003      -0.96849430
H        0.29172069       1.82847071      -1.35407519
H        0.56884992       0.26088399      -1.48221111
H       -0.81037736      -0.56084275      -1.25007522
H       -1.48457241      -0.21434408      -0.65225124
H       -0.05125087       0.51152754      -2.18982244
H       -1.15491700       1.12393117       0.18712217
H       -0.25275201       1.40739679      -2.11803579
H       -0.88034570       0.04186651      -1.98961985
H       -2.04120398       0.55702442      -1.03757691
H       -1.20585537       1.52540493      -1.95763302
H       -1.27008533       1.98895299      -1.04422092
H       -1.60473251       0.58330125      -1.87601471
H       -0.42938989       2.16373634      -0.71102464
H       -0.32809353       1.62291086       0.06285191
H       -1.85692418       1.39458632      -0.47379088
