20
Properties=species:S:1:pos:R:3 pbc="F F F"
H        0.00000000       0.00000000       0.00000000
H        0.05321160       0.83173102       0.50344110
H        0.30796534       0.25064358      -0.88904220
H        0.40887567       1.62613010      -0.04039448
H        0.68338686       0.70734411       1.30389774
H        1.17434812      -0.27530798      -1.05053449
H        0.64672053      -0.67024595       0.43109947
H        0.53158355       1.19770551      -0.92265165
H        1.41883183       1.40416086       1.13991284
H        1.28425550       1.95848227       0.37981516
H        1.08363485      -0.23475957       1.22929215
H        2.22326517       0.87646365       0.98996782
H        1.36236811      -0.86500454      -0.27829564
H        1.48748386       1.24838209      -1.10082984
H        2.58630610       1.07122219       0.04997092
H        1.96320331       1.77371132      -0.29320079
H        2.00027132      -0.07059824       1.02749670
H        1.93842280       0.39493796      -1.19295669
H        2.20318842      -0.44905245       0.15362144
H        2.55966330       0.23949116      -0.45557296
