21
Properties=species:S:1:pos:R:3 pbc="F F F"
H        0.00000000       0.00000000       0.00000000
H       -0.13959605      -0.55577880       0.78719991
H        0.70808405      -0.68016571       1.35225761
H        0.58444917      -0.27080375       2.22701359
H        1.34247518      -0.12849879       0.97602707
H       -0.55129862       0.79461014       0.11280691
H        1.66193318       0.64286971       1.57290328
H       -0.87714702      -0.18992671       1.39997602
H        1.16936255       0.56675822       2.32545161
H        0.86977828       0.29826480       0.05349586
H        0.59137863       1.34136033       2.44371891
H        0.03591466       1.56921220       0.16966699
H       -1.13522136       0.72166598       1.00536191
H        1.33888006      -0.12110338       0.92996681
H        1.42137492       0.06935680       1.78747296
H        0.72767913       0.23842645       2.61815977
H       -0.45589080      -0.00515574       2.25815058
H       -0.37419751       0.96027541       2.35474133
H        0.96662360       1.28606558       0.12880400
H        0.78889465       1.95126033       1.71086812
H        1.35464573       1.50390410       0.99485600
