21
Properties=species:S:1:pos:R:3 pbc="F F F"
H        0.00000000       0.00000000       0.00000000
H        0.63772744       0.77136850       0.22719663
H       -0.94585127       0.29845181       0.26384801
H       -1.40828240       0.08061332      -0.56486470
H        0.01755523      -0.22961354      -1.00014663
H       -1.70709133       0.98727024      -0.75656080
H        0.74477422       0.41662484      -1.46668255
H       -1.33251214       1.73467875      -0.16125005
H       -1.36266780       1.17204118      -1.64835286
H        0.29494300       1.03133941      -2.15450644
H        0.48706526       1.97344303      -1.79554462
H        1.00491035       1.92276645      -0.97254443
H        1.07139373       1.12076437      -0.69691557
H       -0.95607322       1.22754955       0.55493879
H       -0.39761871       2.35189724      -1.64665651
H       -0.85141087      -0.04484257      -1.39866710
H       -0.74133146       2.37055302      -0.60196543
H        0.40426403       2.25511861      -0.20959622
H        0.13565326       1.54597068       0.53699338
H       -1.11175323       1.65508056      -1.88703597
H        0.10545707       2.18578196      -0.15826532
