21
Properties=species:S:1:pos:R:3 pbc="F F F"
H        0.00000000       0.00000000       0.00000000
H        0.85755634      -0.19475858       0.52914101
H       -0.53313851      -0.81366080      -0.04219427
H       -1.43114877      -0.65399188       0.42834502
H       -1.44543719       0.28811181       0.83523607
H        0.83034796      -1.13340390       0.78656209
H       -0.07307360      -1.56732154       0.36816746
H       -1.47858274      -1.27934027       1.10290217
H        0.79437876      -1.18681979       1.81085551
H       -0.08761549      -1.65036786       2.05689049
H       -0.64912754      -0.98012191       2.59429026
H       -0.56610703      -1.94881964       1.19939637
H       -1.40141249      -1.44983995       1.16272199
H       -0.53271663       0.63587439       0.50984079
H       -0.17617914      -0.13132280       2.65690708
H       -1.69758642       0.14481917       1.70943618
H        0.78191978      -0.28016287       2.16564965
H       -0.69277120       0.61608571       2.17958426
H       -1.69758642      -0.78427851       2.00070643
H       -1.28550792      -1.81660163       1.59222817
H       -1.24485517      -1.81660163       1.63780463
