21
Properties=species:S:1:pos:R:3 pbc="F F F"
H        0.00000000       0.00000000       0.00000000
H       -0.92830116      -0.43148959      -0.07346868
H        0.55375272      -0.58319080      -0.54891467
H        0.07984662      -1.29227066      -1.01868010
H       -0.01969359       0.95566529      -0.37368414
H        0.16455254      -1.17426252      -1.98146772
H        0.77060127      -0.42060184      -2.09443426
H       -1.50143266       0.22959304      -0.50072855
H        0.59584600       0.97256428      -1.12792969
H       -1.76514840      -0.14886117      -1.35821748
H       -0.94595647       1.07367337      -0.64967716
H        1.63226128      -0.71905363      -2.56538248
H        1.02590442      -0.10529333      -1.20930052
H        0.60439932      -2.03190494      -2.33404160
H        0.45727164      -2.14106989      -0.72687298
H        2.41205978      -0.55938470      -1.91750598
H       -1.27433801      -1.04354119      -1.46765530
H       -0.92998886       1.21696603      -1.55937493
H        1.47285903      -1.78126132      -2.69600368
H        0.03904110       1.12801099      -1.88555264
H        1.16049445      -2.02944064      -0.14261752
