21
Properties=species:S:1:pos:R:3 pbc="F F F"
H        0.00000000       0.00000000       0.00000000
H        0.15274149      -0.33235219      -0.95892441
H        0.25876534       0.93864530       0.00681390
H        0.46686724       0.45338497      -1.62830424
H       -0.87147772      -0.11162928       0.27641159
H       -0.74007350      -0.61549878      -1.22495127
H       -1.23533928       0.78216147       0.40604076
H       -0.51044786       1.41803586       0.27092224
H        0.52921224       1.29094696      -1.03845096
H       -1.38658416      -0.46401799      -0.51281476
H        0.47157711       1.18928885      -0.90967387
H       -0.12305406       0.66643125      -1.82687318
H       -0.50058901       1.43611026      -1.49012506
H       -0.96927458      -0.03230798      -1.97021389
H       -0.85990870       0.11476433      -1.85922503
H       -1.96033716       0.20673323      -0.77594614
H       -0.75888360       2.02793598      -0.44626850
H       -0.02519000       1.89717031      -1.22647429
H       -0.12229159       0.64470023      -1.84992492
H        1.33401382       0.10629448      -1.35326636
H        0.84481829      -1.24896646      -1.24737239
