21
Properties=species:S:1:pos:R:3 pbc="F F F"
H        0.00000000       0.00000000       0.00000000
H       -0.78841746      -0.36585209      -0.54577839
H       -0.24674127       0.93864530       0.07826034
H        0.87942857      -0.08895500      -0.52155191
H        1.24538302       0.79089266      -0.72156775
H        0.51558375       1.40830636      -0.30428356
H       -0.39706010      -0.68116057      -1.37973332
H        1.29932296       0.84430856      -1.74507213
H       -1.01887238       1.14470875      -0.37965801
H       -1.39713049       0.36595914      -0.75067270
H       -0.82698369       1.78058314      -1.09162951
H        1.05312741      -0.09779513      -2.06934404
H        0.62655044       1.56685638      -2.02547455
H        0.13451171       1.93206394      -1.06631112
H       -0.85324705      -0.15520900      -2.13378382
H        0.22460723       0.09696345      -2.64288330
H       -0.45974737      -0.48885739      -2.15115523
H        0.66558260      -0.50495970      -1.31499243
H        0.14467677       1.93270850      -1.19645476
H       -0.84403688       3.01512527      -1.16507006
H       -0.87257415       3.01512527      -1.15167809
