21
Properties=species:S:1:pos:R:3 pbc="F F F"
H        0.00000000       0.00000000       0.00000000
H        0.47219095      -0.55577880       0.64514065
H        0.20563313      -0.40429801       1.56929505
H       -0.52691495      -0.55577880      -0.60127479
H       -1.51334381      -0.32616526      -0.43526351
H       -1.95834410      -1.13982606      -0.13862941
H       -0.54493785       0.20560205       1.45648539
H       -0.38054261      -1.48487651      -0.34945443
H       -1.57814312       0.42749542       0.17780864
H       -2.31683969      -0.86208588       0.84038472
H       -1.35542226      -0.28944603       1.84554338
H       -1.25826621      -1.88723457      -0.07084059
H       -1.01006055      -1.10310686       2.25388432
H       -0.64817631       0.58582085       0.53852141
H       -2.03173518      -0.30725849       1.07378721
H       -1.79556692      -1.44790673       1.50251198
H       -1.48004866      -1.77335286       1.63484836
H        0.22166529      -1.46797752       0.41547754
H       -2.05591822       0.04904121       0.93712693
H       -0.18115380      -1.29897809       1.89064753
H       -1.15312433      -2.11684799       0.92391902
