20
Properties=species:S:1:pos:R:3 pbc="F F F"
H        0.00000000       0.00000000       0.00000000
H       -0.46163812      -0.66108263       0.54582143
H        0.72855580       0.37845421       0.52348810
H       -0.36045817      -1.52592707       0.11008337
H        0.12494853      -2.14064169       0.77328038
H        0.99517858      -2.40483356       0.29764801
H       -0.00946200      -0.67889506       1.46698558
H        1.77001333      -1.97334397       0.81414753
H        0.72855580      -0.11659387       1.42251611
H        1.56077349      -0.61557359       1.50310004
H        0.34275833      -0.44427392      -0.73039383
H        0.33834428      -1.58555198       1.53815377
H        1.30887485      -1.53487539       1.59784639
H        2.26662683      -1.27652717       0.24745059
H        2.06118131      -0.50394428       0.73794079
H        0.19713917      -1.40154016      -0.74252260
H        1.59878588       0.11426234       0.04785573
H        1.07679057      -1.97334397      -0.62997270
H        1.31094873      -0.35988072      -0.67084509
H        1.79162717      -1.31226134      -0.63624585
