21
Properties=species:S:1:pos:R:3 pbc="F F F"
H        0.00000000       0.00000000       0.00000000
H       -0.01035373      -0.77460212      -0.58986890
H       -0.72452766      -0.72392547      -1.24975419
H        0.79010451      -0.79150110      -1.14398253
H       -0.37420538      -0.77460212      -2.15681934
H        0.83248067       0.46966103      -0.18562131
H       -0.76923430       0.61471456      -0.28935871
H       -1.19515729       0.10780555      -1.06322753
H        1.28854620       0.00310904      -0.88280916
H        0.61450481       1.33450544      -0.57625103
H       -0.63532537       0.07419699      -2.55609035
H        0.65002036      -0.79241455      -2.09382415
H        0.98376340       1.38792133      -1.53234661
H        0.19941574       0.63041830      -2.77322865
H        1.36413860       0.55933034      -1.74201083
H        0.23492660       1.46214938      -2.26823020
H       -0.36484572       1.49140394      -0.63751030
H        0.99682820       0.03931648      -2.46261787
H       -0.59358424       1.47904837      -1.75701106
H       -1.14150012       0.60189420      -1.91314113
H       -0.61788559       1.54208052      -1.57637322
