20
Properties=species:S:1:pos:R:3 pbc="F F F"
H        0.00000000       0.00000000       0.00000000
H        0.52691501       0.55577880      -0.60127473
H        0.12530106       0.46682382      -1.54154980
H       -0.68712264      -0.38723427      -0.47565743
H       -1.50724542      -0.04014379      -0.08197269
H       -0.70435596      -0.08878246      -1.45746875
H        0.49476612       1.42456448      -0.29711080
H       -0.17174149       1.36840928       0.54949516
H       -0.00236368       1.98078585      -1.00195384
H       -0.95595807       1.89610648       0.31582677
H       -1.45348263       0.41039053      -1.65233648
H       -0.24469599       1.39423072      -1.77891552
H       -0.87622905       2.24319696      -0.59039193
H       -1.16662526       1.37846601      -1.83636534
H       -1.29115891       0.54304701       0.66719759
H       -0.36793047       0.58319080       0.68744200
H       -1.98915315       0.45883593      -0.76523340
H       -2.01976871       1.38793361      -0.47557664
H       -1.59233105       1.47232687       0.39519066
H       -1.53455567       1.96165681      -1.14892340
