21
Properties=species:S:1:pos:R:3 pbc="F F F"
H        0.00000000       0.00000000       0.00000000
H        0.44047090       0.80291802      -0.09821343
H       -0.56044048       0.05067664      -0.79460645
H        0.58939195      -0.77460212      -0.02587739
H        0.10497782       1.23440766      -0.96688199
H        1.42575359       0.53872615      -0.21110487
H       -0.34674513      -0.78688532      -1.34791291
H       -0.39861566       0.86714906      -1.39503086
H        0.06576663      -0.45453313      -2.22694635
H        0.92669559       1.28782356      -1.57945895
H        1.73068619       0.82187277      -1.09139180
H       -0.05963978       0.61650550      -2.27271748
H        0.36019087      -1.35779285      -0.77113998
H        1.94438148      -0.01568919      -1.64469826
H        1.47395420      -0.43314737      -0.17647132
H        0.89921641       0.98235762      -2.28113198
H        1.82378948      -0.76549959      -1.08227551
H        1.05654120      -0.71872497      -2.27044654
H        1.53948641       0.25054640      -2.33180499
H        1.20391703      -1.33998036      -1.35520554
H        1.28331900      -1.24642217      -1.48420966
