21
Properties=species:S:1:pos:R:3 pbc="F F F"
H        0.00000000       0.00000000       0.00000000
H        0.12529835      -0.08895500      -1.01474690
H        0.52846134       0.80572510      -1.31529820
H        0.30129555       0.87984765       0.28835735
H        0.70346570       1.40579915      -0.49583527
H       -0.07728750       1.27538610      -1.91575444
H       -0.95656800      -0.08439321       0.16098583
H        0.15790743       2.26344156      -0.63774943
H       -0.91450661       0.68956524      -2.01168132
H       -1.39093304      -0.17334822      -0.76461560
H       -0.31590721       2.21276498      -1.48686218
H       -0.53184539       2.28125405       0.12201869
H       -0.63724709      -0.19116068      -1.46100926
H       -0.49321166       1.40579915       0.66974580
H       -1.99787760       0.64312422      -0.89994842
H       -1.44790101       2.22783804      -0.33766887
H       -1.30241179       0.87810194       0.54812425
H       -1.25173116       2.13888311      -1.34112716
H       -1.61594689       1.13817227      -1.71381581
H       -1.64409816       1.24420309      -1.65564215
H       -1.21639955       0.85312289      -0.79648346
