21
Properties=species:S:1:pos:R:3 pbc="F F F"
H        0.00000000       0.00000000       0.00000000
H       -0.02481474      -0.91159266      -0.47085762
H        0.83983207       0.11800810       0.47834828
H        0.83638048      -1.35136914      -0.35683838
H       -0.77775460      -1.52630723      -0.14141661
H        0.62530673       0.10019565       1.48183489
H        1.43578863      -0.69846433       0.30077451
H        1.11439645      -0.67117286       1.94992220
H        0.65289766      -2.22805858       0.14423415
H       -0.38120237      -2.30090928       0.29538867
H        1.38880706      -0.73665458       0.25166371
H        1.30825806       0.18871593      -0.18579778
H        1.94696283      -0.20478386      -0.50630748
H        2.63222766      -0.43439740      -1.23501432
H        2.63222766      -0.43439740      -1.23501432
H        2.63727403      -0.39954245      -1.24038064
H        2.40249372       1.08079553      -0.99071658
H        2.40249372       1.08079553      -0.99071658
H        2.40249372       1.08079553      -0.99071658
H        2.40249372       1.08079553      -0.99071658
H        2.40249372       1.08079553      -0.99071658
