21
Properties=species:S:1:pos:R:3 pbc="F F F"
H        0.00000000       0.00000000       0.00000000
H        0.50421435      -0.31530851      -0.77097952
H        0.66882771      -1.37281752      -0.63421452
H        0.53738612       0.55577880       0.59193492
H        0.35206535      -1.68812609       0.23083067
H       -0.09718865      -0.87165368       0.66079295
H        1.74168730      -1.46633434      -0.56822813
H        1.06063735      -2.00343466       0.81953037
H        0.76740414       0.15686762       1.50915110
H        1.73793483       0.10619099       1.56884372
H        1.95774698      -0.84087092       1.62192214
H        2.50003576      -1.09151447       0.85305178
H        1.33951974       0.18367121      -0.80765378
H        2.05303550      -0.47741142      -0.76376885
H        2.21109056       0.43854317       0.72091115
H        2.71223354      -0.29326805       0.31920338
H        1.31432283       0.76060367      -0.09012192
H        1.06063735      -1.36756027       1.55690718
H        1.96297300      -1.81342483       0.31416732
H        0.40919536      -0.67689508       1.53198075
H        1.51295948       0.75385165       0.11986673
