20
Properties=species:S:1:pos:R:3 pbc="F F F"
H        0.00000000       0.00000000       0.00000000
H       -0.27385142       0.28314662      -0.89044607
H       -0.84790027      -0.44866461      -1.17851055
H       -0.26258129      -0.91843063       0.18867207
H       -0.79354209      -1.23373914      -0.56413740
H        0.51038468      -1.50162148       0.29101008
H       -0.33739895      -1.96555042      -1.01629519
H        1.29632926      -0.94584268       0.14451139
H       -0.06354746      -1.68240380      -1.90674114
H        0.97260052       0.01689900      -0.04270225
H        0.90788126      -1.63172722      -1.94939196
H        1.15291667      -0.71329659      -2.16035104
H       -0.38943189      -0.69930816      -2.00012207
H        0.47072911      -2.19843817      -0.46145105
H        1.27768302      -1.93017900      -1.03972340
H        1.67642140      -0.43014997      -1.38974631
H        0.44390506      -0.11348730      -2.12537122
H        1.20696676       0.36424905      -0.94045091
H        0.40232301       0.54902005      -1.45665729
H        1.79927254      -1.19836783      -0.66494650
