21
Properties=species:S:1:pos:R:3 pbc="F F F"
H        0.00000000       0.00000000       0.00000000
H       -0.46163812      -0.66108263       0.54582143
H        0.74647850       0.37845421       0.49759740
H       -0.37581238      -1.52592707       0.10680094
H        0.07375404      -2.16879463       0.76856768
H        0.96014011      -2.43298650       0.32376856
H        0.02258715      -0.67889506       1.45054936
H        1.07235217      -1.96943843      -0.58499736
H        0.74647850      -0.14749736       1.37890267
H        1.58101165      -0.64647710       1.43023074
H        0.33502385      -0.46966103      -0.78437138
H        0.37039343      -1.58555198       1.52171755
H        1.39496291      -1.53213608       1.54869688
H        2.10834384      -0.52209020       0.55858141
H        1.80761766      -1.41777158      -0.64318860
H        1.75801444      -2.06713438       0.85562611
H        0.18057773      -1.43241024      -0.81287944
H        1.61670852       0.11426234       0.02196503
H        1.30555451      -0.41898438      -0.72467875
H        1.47992742      -0.51111466      -0.77976543
H        1.43087173      -1.82333994      -0.19774008
