20
Properties=species:S:1:pos:R:3 pbc="F F F"
H        0.00000000       0.00000000       0.00000000
H       -0.96783787       0.05067664       0.09371616
H        0.19842617      -0.94706190      -0.10845168
H       -0.64397854      -1.53288269      -0.08626924
H        0.27373341       0.43148959      -0.89006215
H       -1.40543604      -0.86263674       0.06954046
H       -0.55317235       0.77858007      -1.26929307
H       -1.37149954       0.58382148      -0.68130189
H        0.63121796      -1.07144880      -1.03070056
H        0.71555871      -0.14404190      -1.46212482
H        0.12757725      -0.19471854      -2.23657346
H       -0.27691811      -1.13682222      -2.28291965
H       -1.95909739      -0.05904609      -1.22423291
H       -0.64293402       0.47552741      -2.13456059
H       -1.43357491       0.00351959      -2.11374116
H       -0.01075712      -1.63599515      -1.55606174
H       -1.97265303      -0.95283687      -0.83820808
H       -1.59392142      -1.62308288      -1.51692498
H       -1.29374671      -1.01243532      -2.22037959
H       -0.78062761      -1.97265911      -0.94416469
