20
Properties=species:S:1:pos:R:3 pbc="F F F"
H        0.00000000       0.00000000       0.00000000
H        0.02715597      -1.02162731       0.09414954
H        0.42512393       0.28314662      -0.82895023
H       -0.95476872      -1.32007909       0.08553271
H       -0.25270087       0.72292304      -1.37228370
H       -1.08628976      -1.81905878      -0.74016839
H       -0.92118198       0.31530851      -0.00808378
H       -0.24893457      -1.83595777      -1.23676836
H       -1.75179696      -1.34939778      -1.27362823
H       -1.11503077       0.73982203      -0.92044020
H       -1.29923654      -1.08520591      -2.15607691
H        0.43451899      -1.38747942      -0.77391237
H       -0.38141865       0.19522583      -2.18038535
H        0.26277077      -0.59917319      -2.09509683
H        0.83659911      -0.54301798      -1.18312371
H       -2.04960823      -0.44777369      -0.76127112
H       -1.48435342      -0.54233390      -0.03280999
H       -1.24266100      -0.11333239      -2.13813257
H       -0.38558367      -1.39618134      -2.09466386
H       -1.67193985       0.23375809      -1.33606720
