21
Properties=species:S:1:pos:R:3 pbc="F F F"
H        0.00000000       0.00000000       0.00000000
H       -0.90169489       0.25064358      -0.26867270
H        0.19018230       0.34709048       0.88961780
H       -1.40299070      -0.64403653      -0.30834684
H        0.48849651      -0.42427802       1.49733746
H       -0.89798641      -1.46050894       0.05451316
H       -1.39391077      -1.89199853       0.84267539
H       -2.25732589      -1.36604691       1.01934767
H       -0.25159934      -0.68846989       2.15747738
H       -0.82099622      -1.80760527       1.62543178
H       -1.34226918      -1.22178435       2.28755903
H        0.49730462      -1.13298440       0.99552792
H        0.22345319      -0.84983778       0.10508186
H       -1.35348439       0.74569166       0.50859010
H       -0.71641964      -0.38664687       2.56139302
H       -2.11318564       0.15987080       0.87327063
H       -0.55790913      -1.56831753       1.87445211
H       -2.14433908      -0.62622410       0.40116665
H        0.12747955      -0.49827614       2.20966744
H        1.37800062      -1.54234636       0.92582679
H       -0.71609890      -1.33715761      -0.10441375
