20
Properties=species:S:1:pos:R:3 pbc="F F F"
H        0.00000000       0.00000000       0.00000000
H        0.69739223       0.29845181      -0.69129914
H        0.27729565       1.02099967      -1.28692245
H        0.96806204      -0.53911018      -1.21907902
H       -0.90016329       0.46354809      -0.16778871
H       -0.74677330       1.01932693      -0.95241749
H        0.26070017       0.62208849      -2.23239517
H       -1.31274569       0.72087514      -1.75486732
H        0.67004335      -0.37944126      -2.18810654
H       -1.58236194      -0.25899979      -0.42440769
H       -1.07629204      -1.09073079      -0.41108167
H       -0.69187927       0.42242333      -2.51564002
H        0.00095177      -1.04052389      -2.43979502
H        0.40341824      -1.33350921      -0.89747155
H       -0.08240420      -1.00177574      -0.17108615
H       -0.21744812      -1.63196099      -1.65824437
H       -1.19398475      -1.47229207      -1.38583660
H       -1.81752539      -0.11668682      -1.44340122
H       -0.84257591      -0.53191400      -2.63643599
H       -1.63987088      -0.83641768      -1.97312713
