21
Properties=species:S:1:pos:R:3 pbc="F F F"
H        0.00000000       0.00000000       0.00000000
H        0.54628479      -0.64623839      -0.66938484
H        0.78129756      -0.09045959      -1.43354440
H        0.37417141       0.85164410      -1.43711710
H       -0.13916233       0.89379078      -0.36032319
H       -0.20177308       0.90505999      -0.58932072
H        1.40505266      -1.05560040      -0.46201694
H        2.06339216      -0.61582398      -1.02880323
H        1.40505266      -0.71806014       0.33812159
H        2.62539887      -0.11684427      -0.40974861
H        2.48371863       0.82180107      -0.62638795
H        1.75581455       0.87521696      -1.34793234
H        2.24745750      -0.13223928       0.36030409
H        1.91752172       0.74760836       0.61539495
H        2.07379127       1.26157749       0.13952130
H        0.90023780       0.72979593       0.75007975
H        0.58589935      -0.13223928       0.53592360
H        0.47994801       1.28601718      -0.00311232
H        0.49480712       0.74639362      -0.58358067
H        0.97441328       1.34487796      -1.00603843
H        1.65979302      -0.03263319      -1.69592929
