20
Properties=species:S:1:pos:R:3 pbc="F F F"
H        0.00000000       0.00000000       0.00000000
H       -0.56912082      -0.52595156       0.67290437
H       -0.58368540       0.61471456      -0.57858562
H        0.64817631       0.58582085       0.53852141
H        0.47115514       0.42615193       1.53676641
H       -1.49413967       0.49670646      -0.25422761
H        0.40612972       1.55389631       0.29858965
H       -1.48495233      -0.24280494       0.50219512
H        0.13087305       1.25788295       1.91158974
H        0.09325109       1.91896558       1.19771624
H       -0.29698303      -0.22749975       1.61640394
H       -0.30890566       1.53699732      -0.36209160
H       -1.79343057       0.13564926       1.34461689
H       -0.76763701       1.13987482       2.26770020
H       -1.11997604       2.00054550       0.06289297
H       -1.42128563       1.69609618       1.70495224
H       -0.83229887       2.20211220       1.09166861
H       -1.01378131       0.16055566       2.08420372
H       -2.02609706       1.11496842       1.14430654
H       -1.83158386       1.27463734       0.14932197
