21
Properties=species:S:1:pos:R:3 pbc="F F F"
H        0.00000000       0.00000000       0.00000000
H        0.52691501       0.55577880      -0.60127473
H        0.12433031       0.50236291      -1.54382253
H       -0.74358624      -0.40936196      -0.47703591
H       -0.75955170      -0.06227148      -1.38661504
H        0.71310353       0.07087332      -2.26527023
H        1.33954072       0.13977408      -0.72341108
H        1.33954072      -0.78187376      -0.16243643
H        1.42560124      -0.15867773      -1.70159507
H        0.28433120      -0.74278748      -2.58491278
H        1.44661307      -1.51460552      -0.71013862
H        0.58581227      -0.79439902       0.28120819
H        0.62209791      -2.01358533      -0.57137668
H        1.49707794      -1.14875340      -1.66770291
H       -0.59912229      -0.81593215      -1.98186195
H       -0.64623553      -1.43098927      -0.48819014
H        0.84010184      -1.49644816      -2.31812549
H        0.32382029      -2.05222702      -1.70769596
H        0.69044930      -2.03532791      -0.80583209
H        0.17838728      -1.64882779      -0.01850468
H        0.00939393      -1.79609585      -0.05115208
