21
Properties=species:S:1:pos:R:3 pbc="F F F"
H        0.00000000       0.00000000       0.00000000
H        0.85755634      -0.19475858       0.52914101
H       -0.52886558      -0.81366080      -0.07948768
H       -1.43452358      -0.72470582       0.39505890
H       -1.45217133       0.16997427       0.89761245
H        0.83378774      -1.14182043       0.75401819
H       -0.07508677      -1.58826292       0.29752335
H       -1.49838400      -1.41695964       0.99924791
H       -0.05128288      -1.54073167       0.42108598
H        0.47677898      -0.99642080       1.07245755
H        0.27838600      -0.71478915      -0.14337616
H       -1.49838400      -0.95341158       1.91491544
H       -1.31334102       0.05251145       1.83005202
H       -0.60550690       0.57933623       0.64533663
H       -0.48285240       0.36781996       2.22871256
H       -0.75062555      -1.28174043       2.34082079
H       -0.70778221      -1.97273850       0.88042176
H       -0.05801135      -2.41486311       0.66170734
H        0.89700484      -2.60962176       0.34024665
H        0.89700484      -2.60962176       0.34024665
H       -0.10909730      -2.43839097       0.57999450
