21
Properties=species:S:1:pos:R:3 pbc="F F F"
H        0.00000000       0.00000000       0.00000000
H        0.49089283       0.77460212       0.32722577
H       -0.12538075       1.52826285       0.34345365
H       -0.29281139       1.89411497       1.28761625
H       -0.97105587       0.29845181      -0.14594820
H        0.02426742      -0.68549418       0.69106412
H        0.80396056       0.57984352       1.28502619
H       -0.88983667      -0.90333271       0.94605619
H        0.58276975      -0.28658301       1.45412958
H        0.27362263       1.30829406       1.91154766
H       -1.56344116      -0.22749975       0.50656879
H       -0.88983667      -0.65268910       1.88692737
H       -0.05122524      -0.23316710       2.25943756
H       -1.22776830       1.74263418       1.51338148
H       -1.64815176       1.42732573       0.69367468
H       -0.32819086       0.75207275       2.52941680
H       -1.88944697       0.50889510       0.90890169
H       -1.52911866       0.07912213       1.94882929
H       -1.04339719       1.34749436       0.00357556
H       -1.28228784       1.07238817       2.28870201
H       -1.61018550       0.31413651       1.87709904
