21
Properties=species:S:1:pos:R:3 pbc="F F F"
H        0.00000000       0.00000000       0.00000000
H       -0.13959605      -0.55577880       0.78719991
H        0.70808405      -0.68016571       1.35225761
H        0.58444917      -0.27080375       2.22701359
H        1.35856080      -0.15442902       0.96648735
H       -0.60397279       0.75366068       0.12358512
H        1.66519380       0.63997000       1.53940129
H       -0.87714702      -0.18992671       1.39997602
H        1.16936255       0.56675822       2.32545161
H        0.86977828       0.29826480       0.05349586
H        0.58758420       1.34136033       2.42336226
H       -0.04387093       1.54827082       0.17782000
H       -1.13744235       0.70475340       0.96972281
H        1.33888006      -0.12110338       0.92996681
H        1.75570869      -0.74112123       1.96280360
H        1.75570869      -0.74112123       1.96280360
H        1.75570869      -0.74112123       1.96280360
H        1.75570869      -0.74112123       1.96280360
H        1.75570869      -0.74112123       1.96280360
H        1.75570869      -0.74112123       1.96280360
H        1.75570869      -0.74112123       1.96280360
