20
Properties=species:S:1:pos:R:3 pbc="F F F"
H        0.00000000       0.00000000       0.00000000
H        0.75986940       0.40936196      -0.45064643
H        0.36967397       1.18073046      -1.00387526
H        0.58590585       0.99595952      -1.93509173
H        1.18487024      -0.22651243      -1.05322325
H        1.11358905       0.11927015      -2.01440167
H       -0.82688284       0.40936196      -0.31104404
H       -1.33458114      -0.25172067      -0.81430650
H       -0.65171003       1.19854295      -0.90497422
H       -0.05086109      -0.91843063      -0.31931055
H       -0.80029023      -1.06538153      -0.83776468
H        0.65587646      -1.10320187      -0.98318636
H       -1.35004699       0.01612070      -1.69541919
H       -0.57403636      -1.29499507      -1.81214166
H        0.52457285      -0.55097580      -2.52150536
H       -0.88005900      -0.65412521      -2.31445503
H       -0.30796576      -0.11119935      -2.76957202
H        0.32502806      -1.28278708      -1.91101766
H       -1.04751599       1.00378442      -1.83165145
H       -0.26219177       0.87795144      -2.39862752
