21
Properties=species:S:1:pos:R:3 pbc="F F F"
H        0.00000000       0.00000000       0.00000000
H        0.24483983      -0.86484438      -0.37437752
H       -0.07202885       0.61471456      -0.81869519
H        0.33927205      -0.80868918      -1.44771647
H        0.11299452       0.14697611      -1.74575365
H       -0.90237772      -0.12438690       0.47282779
H       -1.05304623       0.91316640      -0.86176705
H       -0.33409950      -1.45155668      -1.87970722
H       -0.94261730      -0.84165663      -2.33334684
H       -1.16868520      -1.11376965       0.41344818
H       -1.46555793       0.58081424      -1.74080062
H       -0.47864199      -1.47474444      -0.14490663
H       -0.69329059       0.13766253      -2.15419841
H       -0.78833485      -1.92121768      -1.15780020
H       -1.50870275       0.40134978       0.02082267
H       -1.96077800      -1.09778416      -0.05630854
H       -0.89115369      -1.80709660      -1.02394021
H       -1.85277689      -1.62373567      -0.93097115
H       -1.58415198       0.39273125      -0.07997358
H       -0.51199317       0.73774898       0.46915936
H       -0.51199317       0.73774898       0.46915936
