21
Properties=species:S:1:pos:R:3 pbc="F F F"
H        0.00000000       0.00000000       0.00000000
H       -0.53245163       0.67024595      -0.56620628
H       -1.45272875       0.33789375      -0.87597382
H       -0.08819264       0.68714494      -1.43246794
H       -1.56877553      -0.51090539      -0.41322750
H       -0.80469346      -0.76154900       0.13578731
H       -0.34119868      -1.61919141      -0.18506482
H       -0.76251113      -1.88338327      -1.08285224
H        0.76569670      -0.34709048      -0.49122062
H        0.68477333       0.10395414      -1.33012998
H       -1.55365348      -1.24051571      -1.20175970
H       -0.16303962      -0.02973777       0.10761535
H       -0.11604345      -1.79442823      -1.87499523
H       -1.39000988      -0.77085471      -2.03883791
H       -0.45877358      -1.04701972      -2.48919439
H       -1.30485058       0.17620718      -1.82935619
H        1.55148387       0.29871273      -1.84413934
H       -0.83198977      -1.05206013       0.25270382
H       -0.87831545       0.24731976      -2.11271095
H        0.72792435      -1.47911978      -1.50572586
H       -0.48949012      -0.52728236      -2.55640841
