21
Properties=species:S:1:pos:R:3 pbc="F F F"
H        0.00000000       0.00000000       0.00000000
H        0.13252793       0.60990006       0.74734145
H       -0.49712980       0.55622131      -0.70484304
H       -0.70490026       1.46781397      -0.28157705
H       -0.38608667       1.48562646       0.69380212
H        0.93625176      -0.22961354      -0.35218477
H       -0.22848061       2.16463065      -0.86535329
H        0.41981044       2.60440707      -0.28710043
H        0.34140655       2.20817423       0.73854673
H        1.18695199       1.73851323       0.85049403
H        1.57276201       0.24004748       0.21556002
H        1.02760673       0.76599908       0.90802276
H        1.01487696       0.14884067      -1.24585772
H        0.31902069       2.23855495       0.66648096
H        0.31161335       1.30311310       0.31246763
H        0.30447331       0.80967927       0.00927550
H       -0.33602777       1.45274186      -1.06761837
H        1.77314770       0.75874072      -1.27914977
H        2.10749722       0.80941737      -0.36607629
H        0.14705330       0.61238873      -1.53796923
H        1.43382788       1.59102893      -1.48038602
