21
Properties=species:S:1:pos:R:3 pbc="F F F"
H        0.00000000       0.00000000       0.00000000
H       -0.21671417       0.94706190      -0.06457304
H       -0.85205346      -0.49504808      -0.28680325
H       -0.07759275       1.36643004       0.91975564
H        0.26261544       0.59506154       1.50505304
H       -1.22185528       1.03601694      -0.25192940
H       -1.61612821       0.17519787      -0.42922533
H       -1.10628414      -1.02274525       0.49099064
H       -2.28723288       0.02371708       0.25978345
H       -2.32883883       0.86127901       0.85146129
H       -0.45158958      -0.86307633       1.26507378
H       -1.64072168       1.50414658       0.44336811
H       -0.96837002       1.76534128       1.23710358
H        0.19839486      -0.21783850       0.92803383
H       -1.96324432      -0.67565477       0.79629087
H       -2.08551955       0.63166547       1.82171750
H       -1.82890391      -0.30697984       1.85569251
H       -1.23634291       1.20912004       2.05694032
H       -0.50388920       0.51230329       2.23380709
H       -1.93716776      -0.71634179       0.97890139
H       -0.86541975      -0.38148749       2.09781218
