21
Properties=species:S:1:pos:R:3 pbc="F F F"
H        0.00000000       0.00000000       0.00000000
H       -0.02074104      -0.97334045      -0.01546210
H        0.76683927      -1.43688858      -0.48254269
H        0.76598114       0.28314662      -0.53024691
H        1.21793032      -0.57449579      -0.86716747
H        0.09429706       0.37845421       0.89215547
H        1.00964725       0.84200227       0.91625875
H        0.09429706      -0.41594481       1.54196620
H        1.35022509      -1.93586826       0.11640733
H        1.01939368      -0.39813235       1.98604155
H        1.61394525       0.34695420       1.58189762
H       -0.03986268      -1.25350678       0.96419901
H        1.42367125       0.80909818       0.05638963
H        2.18244267      -1.43688858       0.19699129
H        2.14605093      -0.75139439      -0.49354050
H        0.89968288      -1.84691322       1.03424323
H        2.29426527       0.06226641       0.02031705
H        1.44132471       0.61848772      -0.10787861
H        2.45187640       0.45753965       0.45073682
H        3.25522542       0.77592474       1.33563185
H        3.22367573       0.77592474       1.36327994
