20
Properties=species:S:1:pos:R:3 pbc="F F F"
H        0.00000000       0.00000000       0.00000000
H        0.15607943       0.96046287      -0.03480161
H        0.65833944      -0.43977645      -0.56678629
H        1.19332349       0.26930347      -0.96560800
H        0.83943003       1.13414788      -0.69199431
H        2.10377765       0.15129536      -0.64124978
H        0.15540373      -0.23709527       0.87634093
H        0.43818879       0.55751491       1.36284709
H        2.10377765      -0.58051586       0.00102222
H        1.14669299      -0.94636798       0.05988769
H        1.56226516       1.57392430      -0.21015736
H        1.34423637       0.40603411       1.68563533
H        1.31295609       1.62734020       0.78398335
H        2.35614204       0.96495616      -0.16973165
H        0.84786648      -0.79488719       0.97411805
H        0.42584503       1.30492342       0.65960312
H        2.35240388      -0.20206165       0.86300737
H        1.94834781       1.10285091       1.23528028
H        1.52908039      -0.36173058       1.45458841
H        2.52042603       0.71431255       0.75668597
