21
Properties=species:S:1:pos:R:3 pbc="F F F"
H        0.00000000       0.00000000       0.00000000
H       -0.92501378       0.29845181       0.32954502
H       -0.04573084      -0.99825430      -0.23392491
H        0.13970488      -1.11626244      -1.18247569
H        0.27830863      -0.20466977      -1.63315475
H       -1.61150765      -0.44895670       0.17647478
H       -1.13926911       1.02099967      -0.36712062
H       -1.90478373       0.78390443      -0.82111502
H        0.15104233       0.51787812      -0.91548377
H       -0.38830632       1.10995471      -1.06099808
H       -0.42384005      -0.01989880      -2.28192878
H       -1.06911993      -1.31201136      -0.09843183
H       -1.45052838      -1.64436352      -0.99140078
H       -2.14069128      -1.00848913      -1.25101566
H       -1.04509091      -0.83637118      -2.30920506
H       -2.23912239      -0.26108062      -0.55458492
H       -1.99408674       0.63359946      -0.99370801
H       -0.65856254      -1.46335292      -1.61877632
H       -0.95155185       0.77450025      -1.90275288
H       -1.86424625       0.49135363      -1.71599698
H       -1.98110008      -0.53791940      -2.01232576
