21
Properties=species:S:1:pos:R:3 pbc="F F F"
H        0.00000000       0.00000000       0.00000000
H        0.14728610      -1.02954066      -0.28719354
H        0.77891529       0.61471456      -0.26218474
H        1.02990365      -1.01172817      -0.81063676
H        1.50096083      -0.10013551      -0.83131862
H        1.52078295       0.05849326      -0.70215511
H        0.11523461       0.45575133      -0.45993775
H        0.70591915      -1.19463027      -0.20530343
H        0.38339072      -0.21499988      -1.03135967
H        0.04904130      -0.16432324      -0.11828613
H        0.82004344      -1.10865462       0.32853693
H        0.46047831      -0.74354804      -0.37258017
H        0.34648383      -0.82743353      -0.34288770
H        0.88180137      -1.59951234       0.57480180
H        0.88180137      -1.59951234       0.57480180
H        0.87312078      -1.59951234       0.57681751
H       -0.14825165      -0.05262291      -0.11553717
H       -0.14825165      -0.05262291      -0.11553717
H        0.27003419       1.42216897      -1.12659216
H        0.27003419       1.42216897      -1.12659216
H        0.27003419       1.42216897      -1.12659216
