21
Properties=species:S:1:pos:R:3 pbc="F F F"
H        0.00000000       0.00000000       0.00000000
H        0.83968246      -0.37845421      -0.31585881
H       -0.70202571      -0.74740851       0.04317808
H        0.27484447       0.26419187       0.95288354
H        0.69016260      -1.38437724      -0.45401275
H       -0.93712473      -0.86541659       0.98065525
H       -0.28614295      -0.17558458       1.61617136
H       -0.93853092      -0.67456430       1.09322774
H        0.48201197       1.21125376       1.04352748
H       -0.23160940      -1.63502085      -0.26539946
H        0.14637417       1.49440038       0.17448425
H       -0.19902924       0.78532046      -0.39644754
H       -0.12437676      -0.87541920       0.49330586
H        0.35831332      -0.47430816       1.63314140
H        1.69997501      -0.17370801       0.30228594
H        0.00695403      -2.49741530      -1.04110408
H        0.62792432      -1.44601095      -1.63497937
H        0.92915702      -1.94499063      -2.41494036
H        0.00192541       1.66200984       0.09787712
H        0.92797863       0.35361135       1.38832772
H        1.63833547      -1.38876939      -2.90586591
