20
Properties=species:S:1:pos:R:3 pbc="F F F"
H        0.00000000       0.00000000       0.00000000
H       -0.50007260       0.47200781      -0.61275923
H       -0.36002165       0.18477097       0.88560998
H       -1.09668887       0.82064533       0.85326642
H       -1.11339879       1.08672237      -0.06569350
H       -0.81340504       1.67828774       1.34063053
H        0.10976315       1.48352921       1.74455321
H        0.34971392       0.56322515       1.43434381
H        0.73382622       2.09342933       1.31254840
H       -0.90056401       2.02536774      -0.21302739
H        1.14727998       0.64761835       0.88223237
H        0.98101741       0.29845181      -0.04307179
H       -0.10010576       2.00846863      -0.76714098
H        0.05066347       1.07937098      -1.01635373
H        1.38747489       1.53720808       0.74980050
H        1.30947280       1.77430332      -0.13678813
H        0.61800933       2.45979738      -0.14285603
H        0.99091822       0.91596049      -0.70766282
H       -0.73044217       2.44965625       0.66874379
H        0.21039283       2.70029974       0.66048735
