20
Properties=species:S:1:pos:R:3 pbc="F F F"
H        0.00000000       0.00000000       0.00000000
H        0.52815789      -0.26419187       0.83939010
H       -0.28055891       0.92909771       0.07826273
H        0.03224984       1.27618814       0.93251079
H       -0.73753613      -0.55166692      -0.00647221
H       -1.25054145       1.01349092       0.06975070
H       -1.55901957       1.39194512       0.91217256
H       -0.73753613      -1.13485765       0.77323890
H       -2.05303526       0.66013390       1.32261348
H       -1.61577511       0.05782562      -0.01168687
H       -2.12117863      -0.16001287       0.79154068
H        0.44701010       0.54437691       1.42290580
H        0.11375117      -0.90524411       1.29851174
H       -1.58882332      -0.90524411       1.29851174
H       -1.57261968       0.47536293       2.14912510
H       -0.81903732       1.50580168       1.45778370
H       -1.25138557      -0.44306770       2.11231875
H       -0.03107437       0.33831346       2.18271565
H       -0.27788550      -0.42616871       2.10377574
H       -0.84709471       0.95002288       2.25677276
