21
Properties=species:S:1:pos:R:3 pbc="F F F"
H        0.00000000       0.00000000       0.00000000
H        0.80713278      -0.08439321       0.53802919
H        1.48012805      -0.64061451      -0.00143266
H       -0.74809945      -0.39891118       0.57839519
H       -1.01731849      -1.17351329       0.05344415
H        0.61918545      -0.57944131       1.41719186
H        1.09580183      -1.42824042       1.39626586
H       -0.46631467      -1.35828424      -0.72778279
H        1.70350099      -1.47817647       0.54803824
H        1.42744434      -2.27257538      -0.04021919
H        0.02578712      -2.19001532      -0.60895425
H       -0.29093727      -0.74600166       1.36490130
H       -0.25358510      -2.57462907       0.35962754
H       -0.34529907      -1.77040887       1.39586449
H        1.08435762      -0.92376113      -0.84479177
H       -0.97074634      -1.98880816       0.80214024
H       -1.19285369      -1.23514748       0.22705346
H        1.01230788      -1.92548490      -0.84969485
H        0.77915347      -2.71235180       0.53803378
H       -0.53066593      -0.88051391       0.32743877
H        0.07547742      -1.20439339       0.18166912
