21
Properties=species:S:1:pos:R:3 pbc="F F F"
H        0.00000000       0.00000000       0.00000000
H       -0.04850490       0.68549418       0.68978679
H       -0.79467732      -0.11800810      -0.55011171
H       -1.37130082       0.60453981      -0.10429364
H       -0.89609832       1.00345099       0.71324927
H        0.14092271      -0.95566529       0.34665322
H       -1.37300205       0.78561246       1.53371871
H       -1.13977170      -1.02466500      -0.46678132
H        0.04599217       0.19044611       1.58383465
H       -0.53795826      -1.58088636       0.15108788
H        0.14092271      -0.86671031       1.36910665
H       -0.59677446      -1.39440751       1.72322452
H       -0.99319708      -1.83418393       0.95023894
H       -0.79893017       0.24112275       2.06508207
H       -1.26246071      -0.75153995       2.16696644
H       -1.22981071      -0.62372160       2.18527746
H       -1.98469400      -0.97398835       0.01446611
H       -0.49290013      -1.35843897       0.05366731
H       -0.80583853      -1.10848641       0.51158750
H       -0.75961065      -1.16200006       0.45248270
H       -1.32755005      -0.43890035       1.14067841
