20
Properties=species:S:1:pos:R:3 pbc="F F F"
H        0.00000000       0.00000000       0.00000000
H       -0.32983679       0.96807545      -0.08579928
H        0.16667235      -0.43977645      -0.85257131
H        1.10750735      -0.69042003      -0.86082774
H       -0.38088712       1.05246866      -1.05447495
H       -0.10620016       0.19482625      -1.54673564
H        0.30927578       1.68834305      -1.31408978
H        0.34246337       1.57797551       0.26647243
H        1.47233856      -0.13464123      -1.57221293
H        0.75777912       0.42113757      -1.93078732
H        1.00565922       1.35023522      -1.77783704
H        2.13186193       0.47525883      -1.19656420
H        1.83317196       1.40091181      -1.26723385
H        0.84492230       0.05067664       0.48124757
H        1.05061984       1.02219677       0.63753211
H        1.56154537      -0.34823453      -0.13571700
H        1.66805923       1.79982305      -0.33614224
H        0.71978617       1.97148967      -0.47780627
H        1.87288380       1.20696771       0.14988211
H        2.19779086       0.34932530      -0.31077924
