21
Properties=species:S:1:pos:R:3 pbc="F F F"
H        0.00000000       0.00000000       0.00000000
H       -0.51304650      -0.77136850      -0.44169885
H       -0.33338243      -1.62016761       0.00025347
H        0.32590312      -1.45231056       0.83768630
H        0.53137892      -0.39891118       0.78219581
H       -0.19554019      -0.85576171      -1.35828412
H        0.60521507       0.40936196      -0.64358246
H        0.14803866      -1.76241863      -1.44765806
H       -0.10619208      -2.29011583      -0.66986418
H        1.16115999      -1.97826219       0.55653691
H        1.89034688      -1.34238780       0.44694132
H        1.01974189      -2.47331023      -0.33129871
H        2.25960541      -1.39580369      -0.50915426
H        1.55229330       0.28497505      -0.26822302
H        1.51731777      -0.27452427       0.52572691
H        1.67664003      -2.10745811      -1.02984071
H        2.12309766      -0.51595604      -0.90322864
H        1.49303126      -0.70072699      -1.62221193
H        0.14778680      -2.19016361      -0.65929735
H        1.53125882      -0.44859701       0.58926022
H        0.19769096      -1.97277188      -1.36173499
