21
Properties=species:S:1:pos:R:3 pbc="F F F"
H        0.00000000       0.00000000       0.00000000
H        0.54069358       0.79439902       0.36042264
H       -0.06340116       1.58879805       0.59984607
H        0.10352299       1.77356899       1.54115200
H        1.08634281       0.46204683       1.16362429
H       -1.03135991       1.32460618       0.38401651
H        0.84398311      -0.46705088       1.32517958
H        0.78526217       1.01782560       1.90424645
H        0.10301188      -0.77460212       0.58089679
H       -0.78903782       1.57881045       2.00883579
H       -0.63907969       0.82514977       2.60680652
H       -1.14066792       0.11222756       2.30933571
H       -1.58877146       0.41067937       1.43557739
H       -1.40493202       1.34932470       1.25334406
H        0.35533971      -0.51772749       2.16584635
H       -1.00024605       0.41794926       0.03036970
H        0.31307128       0.46204680       2.54938722
H       -0.53412896      -0.59685236       2.03116822
H       -0.75882626      -0.95937312       0.99460626
H       -1.46076012      -0.16524154       0.65955669
H       -1.44373858      -0.26255637       0.68049562
