21
Properties=species:S:1:pos:R:3 pbc="F F F"
H        0.00000000       0.00000000       0.00000000
H        0.93511528      -0.39891118      -0.14054634
H        1.01681066      -1.06915712       0.63238323
H        0.98330522      -0.86245930      -1.05494499
H        1.08241284      -1.94900477       0.22052726
H        0.24662364      -1.05225813       1.22785544
H       -0.58433372      -0.15966894      -0.82848287
H        0.00947374      -0.65864867      -1.41710234
H       -0.16579217      -1.93210578       1.16586995
H       -1.04006374      -1.78062499       0.76491642
H       -0.43740073      -1.57024133      -1.56752133
H       -1.33744955      -0.71544772      -0.56017816
H        1.09488213      -1.82292223      -0.94039136
H        0.38960475      -2.51792669       0.53209394
H        0.32898808      -2.35061932      -1.22849357
H        0.15107903      -2.25573540      -1.20440960
H       -0.43539047      -0.38201219       0.85509419
H        0.95711458      -1.86004972      -0.79421961
H        1.59541941      -1.63943756      -0.40808031
H        0.01890123      -1.72936451      -0.41207993
H        0.09181517      -1.72936451      -0.31427228
