21
Properties=species:S:1:pos:R:3 pbc="F F F"
H        0.00000000       0.00000000       0.00000000
H        0.90784711      -0.05341591       0.47569352
H        0.19060609       0.58582085      -0.82085752
H        1.54148102       0.44556379      -0.06982297
H        1.13122344       0.94061184      -0.86978543
H        1.19910622      -0.98251361       0.47313756
H        0.51164293      -1.48149335      -0.00275573
H       -0.20805979      -0.89830256      -0.30271807
H        0.97889304      -1.84734547      -0.84010482
H       -0.22606881      -0.91611499      -1.32872105
H        1.57451200       0.59352136      -1.66419363
H        1.89979124      -1.53203702      -0.81585544
H        2.12028503      -1.11327934      -0.07317472
H        0.91568393       0.17751664      -2.15533876
H        2.26868105      -0.19730377      -0.40332738
H        0.54316550      -1.53082955      -1.61807978
H        0.00977451       0.03004205      -1.59961987
H        1.21878481      -0.94500870      -2.12174273
H        2.29799366      -0.01637870      -1.43472266
H        2.00306106      -0.94621617      -1.65220058
H        1.25072670      -0.79055882      -2.21779013
