21
Properties=species:S:1:pos:R:3 pbc="F F F"
H        0.00000000       0.00000000       0.00000000
H        0.87909138       0.39891118       0.34841394
H        0.84517229       0.28090307       1.31432509
H        1.66797733      -0.09613690      -0.08275905
H        0.24040787      -0.70907992      -0.62247139
H        1.26434612      -0.76249582      -0.66742766
H       -0.12362196      -1.56672239      -0.19205794
H        2.13062000      -0.53591335       0.65250909
H       -0.68091244      -1.30253053       0.62827969
H       -0.25837779      -1.66838264       1.48905873
H       -0.50360084      -0.39891118       0.80036247
H        0.00587487      -0.23924224       1.67686939
H        0.62741572      -2.14991331       0.01744607
H        0.14333165      -1.00730002       2.08037949
H        0.55595499      -2.27430010       1.03368676
H       -0.21296620      -1.80463910       1.40279317
H       -0.05476120      -0.22257107       2.39520431
H       -0.87021875       0.18679088       2.05533266
H        1.52854943      -1.62734020      -0.30645442
H        0.11269879      -1.12001717       0.67709088
H        1.63224530      -0.27172148       1.50991750
