21
Properties=species:S:1:pos:R:3 pbc="F F F"
H        0.00000000       0.00000000       0.00000000
H        0.41703188       0.87984765      -0.00365971
H        0.70928490      -0.58582085      -0.45503053
H       -0.81941164      -0.01689900      -0.52568042
H        1.41968751       0.02407920      -0.72225887
H        1.22040117       0.97974449      -0.40553719
H       -0.97696698       0.90153164      -0.80803192
H       -0.62432170      -0.57312030      -1.36584806
H       -0.22159350       1.46566844      -0.55347365
H        0.35195228      -0.93291134      -1.29163229
H        1.50962162       0.00626675      -1.74447131
H       -0.92573148       0.91843063      -1.78022027
H        0.24930134       1.81275892      -1.33183551
H       -0.69817692       0.01270056      -2.20530224
H        1.17019951       1.49745035      -1.30758607
H       -0.16008791       1.43430471      -2.13010478
H        1.30955458       0.88158733      -2.18246913
H        0.84987330      -0.58582085      -2.05298901
H        0.44689107       0.82817143      -2.73589706
H        0.20118195       0.06611647      -2.69685531
H        0.20257992      -0.05986929      -2.65107775
