20
Properties=species:S:1:pos:R:3 pbc="F F F"
H        0.00000000       0.00000000       0.00000000
H        0.63848275      -0.52769721      -0.51179713
H       -0.57895005       0.46354809      -0.70941097
H        0.47764969      -0.43874222      -1.52152157
H       -0.26315939       0.17115784      -1.68670261
H       -1.50249636       0.18040147      -0.58713669
H       -1.05204535      -0.32389024      -2.11787558
H       -0.75359416      -1.24232090      -2.24226594
H       -0.61332619      -0.61471456       0.54706573
H       -1.76156163      -0.34555009      -1.42950487
H       -1.57262540      -0.56129867       0.18621138
H       -1.88338459      -1.47289133      -0.16840303
H       -0.32646877      -1.58279002       0.36303687
H        0.52441877      -1.46634245      -0.27942818
H       -1.11692810      -2.14313722      -0.03941219
H       -1.32703567      -1.85703540      -1.65352583
H       -1.98850083      -1.35805571      -1.14211214
H        0.16016960      -1.32671416      -1.91672862
H        0.27369630      -1.93600345      -1.09466898
H       -0.62815315      -2.28309393      -0.97526735
