21
Properties=species:S:1:pos:R:3 pbc="F F F"
H        0.00000000       0.00000000       0.00000000
H       -0.37664786      -0.36585209      -0.88182342
H       -0.52621007       0.87668937       0.08855864
H       -1.21512079       0.96108258      -0.59433293
H        0.95557672       0.15148079      -0.10948779
H        1.24962163      -0.07813275      -1.06559396
H       -1.00489271       1.69289374      -1.20122457
H       -1.12660396       0.16647243      -1.15004897
H        0.40820467      -0.44398484      -1.52547836
H       -0.73924625       1.34349787      -2.18686223
H       -0.82604074       0.32187057      -2.14138365
H        0.08342981       1.63035011      -0.00306926
H        1.08544159       1.11194372      -0.01617619
H        1.50686383       0.77950966      -1.56719124
H        0.20652771       1.49039793       0.16366747
H        1.19538140       1.49039793      -0.90653938
H        0.14036298       0.08371237      -2.29869080
H        0.24160457       2.13219166      -1.19073069
H        1.12683296       2.25657845      -0.68652576
H        0.80896020       0.90389657      -2.30933833
H        0.90508538       2.59411860       0.08227181
