21
Properties=species:S:1:pos:R:3 pbc="F F F"
H        0.00000000       0.00000000       0.00000000
H        0.79402828      -0.31375703       0.65969908
H        1.58870554      -0.43176514       0.10958737
H        0.54132378      -1.20843709       1.09445417
H        1.37009525      -0.31375703      -0.83187133
H        0.40539414       0.01859516      -0.94240475
H        1.83106530      -1.36086285       0.27114269
H        1.75778735      -1.85984254      -0.56175017
H       -0.39858717      -1.47262895       0.77807784
H        1.42759752      -1.18959665      -1.26536155
H        1.19281852      -1.77022481       0.88198209
H       -0.72861528      -0.72254789       0.01918610
H       -0.24977304      -2.30435991       0.29419896
H       -0.68042535      -1.18609595      -0.89521253
H       -0.45940131      -1.38363051       0.68142056
H        0.40632701      -2.48615623       1.63079262
H        0.40632701      -2.48615623       1.63079262
H        0.40632701      -2.48615623       1.63079262
H        0.40632701      -2.48615623       1.63079262
H        0.40632701      -2.48615623       1.63079262
H        0.40632701      -2.48615623       1.63079262
