21
Properties=species:S:1:pos:R:3 pbc="F F F"
H        0.00000000       0.00000000       0.00000000
H       -0.12270200      -0.91159266      -0.45526573
H       -0.80794179       0.61471456      -0.15059879
H       -0.94211364      -0.92849165      -0.98094618
H       -1.36851764       0.08701736      -0.74671221
H       -0.96697056      -0.76178175      -1.00431848
H       -0.78032148      -0.81272101       0.01725245
H       -1.58110309      -0.91159266      -0.10310379
H       -1.33265257       0.17623478      -1.02493846
H       -1.22374010       0.14244503      -1.02839911
H       -0.33560196       0.89791930      -0.10486194
H       -0.34438351       0.91421843      -0.12208757
H       -0.33341104       0.89791930      -0.15476310
H       -0.01870485       0.16785710      -1.06564593
H       -0.01870485       0.16785710      -1.06564593
H       -0.01870485       0.16785710      -1.06564593
H       -0.11313510       1.61280572       0.27812025
H       -0.15729827       1.38925874      -0.55987227
H       -0.03286737       1.91764247       1.41960442
H       -0.03286737       1.91764247       1.41960442
H       -0.03286737       1.91764247       1.41960442
