21
Properties=species:S:1:pos:R:3 pbc="F F F"
H        0.00000000       0.00000000       0.00000000
H       -0.67230010      -0.60990006       0.35227177
H       -1.41321456       0.00481451       0.70793402
H       -0.27464804      -1.19572091       1.09524596
H       -1.14381313       0.98413366       0.56069010
H        0.72099590      -0.96610737       1.19165456
H       -0.75506377      -1.01094997       1.92175746
H       -0.27473468       1.03481030       0.12457609
H        0.88184810      -0.65079886       2.09872007
H       -0.13864714      -0.60158801       2.55461931
H       -1.44690406      -0.34986734       1.74179149
H       -1.04441893       1.38304484       1.50107014
H        1.15625107       0.32852030       1.96102142
H        0.83069557      -0.18477097       0.47314432
H        0.36351210       1.44417226       0.73541540
H       -0.00981998      -0.66861129       2.60659266
H       -0.64094824      -0.22548044       2.36491823
H       -0.15868628      -0.08823180       1.26464462
H       -0.15868628      -0.08823180       1.26464462
H       -0.15868628      -0.08823180       1.26464462
H       -0.15868628      -0.08823180       1.26464462
