21
Properties=species:S:1:pos:R:3 pbc="F F F"
H        0.00000000       0.00000000       0.00000000
H        0.19410905      -0.89379078       0.33394706
H       -1.01284361       0.15966894      -0.04446920
H       -1.46209764      -0.65680349       0.38549304
H       -0.65685236      -1.30315280       0.57132524
H        0.64025116      -1.39296377      -0.29860443
H        0.03517264      -2.16433239      -0.60223997
H       -0.79034466      -2.07993913      -0.09286791
H       -0.21725705      -2.07993913      -1.53883910
H       -2.02518964      -1.08829308      -0.35617280
H        0.71227986      -0.77824920      -1.11729956
H        0.36925858       0.05341591      -0.95609558
H       -0.38122332       0.20489670      -1.55766964
H       -1.23967099      -1.99098408      -1.54781127
H        0.19869980      -1.31026006      -1.82678330
H       -1.56147623      -1.92845833      -0.66773349
H       -1.41593611      -1.09719324      -1.89151108
H       -1.92191994      -0.50247222      -1.19251800
H       -0.43320692      -0.63266528      -2.14852619
H       -0.62064958      -0.68118852      -2.09838629
H       -0.19373986      -0.56846398      -0.68067622
