21
Properties=species:S:1:pos:R:3 pbc="F F F"
H        0.00000000       0.00000000       0.00000000
H       -0.77018702      -0.01689900       0.59547228
H       -1.32909966      -0.81129801       0.26400480
H       -0.39670721      -0.28109086       1.51418829
H       -0.77739990      -1.14593530       1.74908853
H       -0.03434396      -1.84275198       1.87414122
H       -0.18967433      -0.72254789      -0.70375568
H       -1.46266460      -1.37554884       1.02038169
H        0.85128731      -0.22961354       0.52527279
H        0.55338162      -1.41936469      -0.57870305
H        0.82065243      -1.43339002       1.65173399
H       -0.19074938      -2.52824616       1.20057166
H       -0.96004868      -1.25107443      -0.52241683
H        1.23091006      -1.92843807       0.85177153
H        0.60226887      -2.67584658       0.53631198
H       -0.77195495      -2.18017220      -0.30002278
H       -1.00000775      -2.27760267       0.72063470
H        0.30626857      -2.50106335      -0.31818932
H        0.61874592      -0.41438451       1.45255113
H        0.79395700      -1.66350138      -0.65578938
H        0.22506867      -3.05398679      -1.24112463
