21
Properties=species:S:1:pos:R:3 pbc="F F F"
H        0.00000000       0.00000000       0.00000000
H        0.45934626      -0.55622131       0.73002923
H       -0.39868912       0.83756196       0.43915913
H       -0.12888619       0.85446095       1.37456369
H        0.66820902       0.25064358      -0.66237098
H        1.40039361      -0.60689795       0.48523784
H        1.90559173      -0.11184987       1.22889507
H        0.37146232      -0.05724159       1.56150770
H        0.04840329       1.61216402       0.05424237
H        0.49051502       1.64885998       1.57102275
H        1.58950996      -0.10791823      -0.32920378
H        1.25947094       0.22590503       1.84316254
H        0.68836963       1.27981186      -0.67603773
H        1.39188063       1.24994874       1.85691404
H        0.65718734       2.08863640       0.71845144
H        2.12503648       1.56370580       1.13016367
H        2.49059057       0.68701643       0.74143529
H        1.64671016       1.99968135       0.46105024
H        2.24658442       0.70574236      -0.30939186
H        2.41863823       0.65951860       0.78719628
H        1.17961085       0.48056820       0.64231145
