21
Properties=species:S:1:pos:R:3 pbc="F F F"
H        0.00000000       0.00000000       0.00000000
H       -0.47398776      -0.23709527       0.75329894
H       -1.02625871       0.62054718       0.86630481
H        0.10100430      -0.25399426       1.53889394
H       -0.80738962       1.29638231       0.05422693
H       -0.38744828       2.09099245       0.42879984
H        0.55973709       2.10880494       0.03402603
H       -0.15837537       0.92740691      -0.41007015
H        0.69080448       1.27366745      -0.63641709
H       -0.68768966       1.11559522       1.69914460
H        1.06146061      -0.23618180       1.17760420
H        1.23655701       2.02441168       0.72890276
H        1.40954721       0.55842835       1.61974812
H        1.38144886       0.69047666      -0.27453339
H       -0.30959037       2.04300213       1.47490990
H        0.95061821      -0.14125437      -0.00869632
H        1.79833150       1.09983861       0.50437140
H        0.64374959       1.08437991       2.05592799
H        1.09318769      -0.26564127       1.00002849
H       -0.48041320      -0.39113879       0.57784456
H       -0.34961280       0.89244580       2.07168460
