21
Properties=species:S:1:pos:R:3 pbc="F F F"
H        0.00000000       0.00000000       0.00000000
H       -0.12270200      -0.91159266      -0.45526573
H       -0.79538780       0.61471456      -0.20690145
H        0.61419034      -0.96226931      -1.08968091
H       -1.34644365       0.11573485      -0.83572388
H       -2.18932867       0.03134163      -0.35563686
H       -1.01421285      -0.77805591      -1.03275597
H       -1.30079138       0.83255303       0.59632611
H        0.00000000      -0.19475858       1.00766706
H       -0.14646450      -1.20713818       1.09108973
H       -0.99842298      -1.35861897       1.53749883
H       -1.63646579      -1.79839540       0.94795752
H       -1.36419725      -0.43121207       1.78132141
H       -0.78253293       0.21460338       1.41769862
H       -2.09646893       0.44070360       0.52291930
H        1.21345401      -0.20860863      -0.94497585
H       -2.21537781      -0.34681886       1.31610060
H       -1.24016500       0.71358311       0.71794659
H       -2.54397249       1.14669287       1.43456495
H       -2.54397249       1.14669287       1.43456495
H       -2.57569075       1.14669287       1.41829836
