20
Properties=species:S:1:pos:R:3 pbc="F F F"
H        0.00000000       0.00000000       0.00000000
H        0.24483983      -0.86484438      -0.37437752
H       -0.12575935       0.55577880      -0.78952855
H        0.26377246      -0.84611845      -1.45299613
H        1.17995834      -1.03088939      -1.72598684
H        1.18084884      -1.16329622      -0.07749811
H        0.04992230       0.09223071      -1.68818474
H        0.59971535       1.27832675      -0.71928054
H        1.16015577       1.22765017      -1.51388693
H        1.77015889      -1.25225127      -0.91303658
H        0.86326367       0.49114189      -2.17054319
H        0.76652521       0.31530851       0.51096046
H        2.09436965       0.96345830      -1.18106413
H        2.48367476      -0.59116864      -0.86915165
H        1.50916696      -0.40963554       0.44429085
H        1.53737855      -0.13420650      -2.22389483
H        2.35438752       0.08676893      -1.64703655
H        2.35785985      -0.09612057       0.02102911
H        1.19064856       1.03693819       0.15057969
H        2.17402029       0.84252477      -0.16120414
