21
Properties=species:S:1:pos:R:3 pbc="F F F"
H        0.00000000       0.00000000       0.00000000
H       -0.49101692      -0.19475858      -0.87994057
H       -0.08869940       0.47548735      -1.54494798
H        0.69884872       0.63587439      -0.23523413
H        0.61723661       1.06736398      -1.16285479
H        0.50378960      -0.81366080       0.17947997
H        0.35776415      -0.08073395      -2.28292632
H        1.36353076       0.11402462      -2.22106647
H        1.91585803      -0.76648927      -1.93165827
H        1.47168159       0.88259304      -1.59162557
H        1.23837113      -1.51389778      -1.74267137
H        2.05101848       0.50413883      -0.90664220
H        0.21415210      -1.44953513      -0.49863118
H        1.00606894      -1.70017874      -1.00667286
H        1.58821297       0.25742018      -0.11748540
H        1.73047388      -1.23663068      -0.44659734
H        0.32293451      -1.08240819      -1.91330695
H        2.35988474      -0.57173067      -1.02709579
H       -0.19553512      -1.06550920      -1.08931386
H        2.22244000       0.35736704      -0.77029371
H        1.46528506      -0.66218001       0.20479840
