20
Properties=species:S:1:pos:R:3 pbc="F F F"
H        0.00000000       0.00000000       0.00000000
H        0.90784711      -0.05341591       0.47569352
H        0.21929623       0.58582085      -0.81366265
H        0.75891960       0.41624510       1.31551492
H        1.34692740       1.25380707       1.39336514
H        1.15086591       0.86896747      -0.82183772
H        1.56774855       0.45960552      -0.04293293
H        1.19182980       1.83820367      -0.73838699
H        1.85408652       1.25400448       0.54038906
H        1.63261056       2.06781721       0.15956277
H       -0.31301969       1.39948165      -0.76211828
H        0.78682554       2.04841709       1.44760001
H        0.16145730       2.15196061      -0.67501396
H        0.95788229       2.57415390       0.71093297
H       -0.70430321       0.46354809       0.58515304
H       -0.19207597       1.74996531       1.37012661
H       -0.16056031       0.73155361       1.37206757
H       -0.62965214       2.11581731       0.51689553
H       -0.80166310       1.34880507       0.07854837
H        0.03988515       2.59173703       0.18514758
