21
Properties=species:S:1:pos:R:3 pbc="F F F"
H        0.00000000       0.00000000       0.00000000
H        0.05110265      -0.33235219      -0.96966726
H        0.67177922      -1.14882457      -0.93149245
H        1.49404311      -0.96405363      -1.41914248
H        0.97060561      -1.30030537      -0.01726204
H        0.54012072      -0.57775748       0.57089704
H        0.38446462       0.89379078       0.03722785
H        2.24191785      -0.94806808      -0.88177323
H        2.04122829      -1.16953969       0.01092996
H        2.26601791      -0.31119686       0.62480658
H        1.40667582      -0.07026285      -1.79539490
H        1.24827719      -0.02197868       0.94195670
H        1.43200815       0.06725734       0.95535320
H        2.62697649      -0.05427730      -0.91224802
H        1.72505808      -1.06485748       0.32913983
H        2.07891011       0.58859026      -1.49505889
H        1.19628346       0.87597835       0.66488767
H        0.33366978       1.09381688       0.26928058
H        0.51524353       0.29558924      -1.44208980
H        2.59677601       0.27405152      -0.05223292
H        2.00792885       1.04865360      -0.01601589
