21
Properties=species:S:1:pos:R:3 pbc="F F F"
H        0.00000000       0.00000000       0.00000000
H       -0.02481474      -0.91159266      -0.47085762
H        0.82551742       0.08439321       0.50937194
H       -0.80621600      -1.38125372      -0.12896368
H        0.75275803      -1.46781397      -0.09759843
H        0.47691369       0.24406216       1.46137261
H        1.32789683      -0.81028688       0.48731485
H       -0.49451506       0.29473880       1.41872180
H       -0.49958304      -2.17565274       0.44395021
H        0.42444003      -2.22147465       0.42419058
H       -1.30813146      -0.71100777       0.46447983
H       -0.86909413      -0.45266971       2.01403260
H       -0.74461281       0.14663464       0.47931859
H        0.74095112      -2.09708786       1.39252543
H       -0.78054935      -2.01598382       1.41805875
H       -1.41075659      -1.06738424       1.39592922
H       -0.14427882      -0.98036695       2.39382124
H        0.69908935      -0.53053999       2.00789833
H        0.05179262      -1.96256793       2.01612020
H       -0.93458092      -1.91618335       1.42521644
H        1.29641271      -1.18874109       1.38388729
