21
Properties=species:S:1:pos:R:3 pbc="F F F"
H        0.00000000       0.00000000       0.00000000
H        0.63772744       0.77136850       0.22719663
H       -0.94585127       0.29845181       0.26384801
H       -1.32864690      -0.14132464       1.04367185
H        0.25062263      -0.72254789       0.68442434
H       -1.45739889       0.49454975       1.76972103
H       -0.62229377      -0.81606472       1.31163943
H       -1.22273517       1.43665338       1.43700886
H       -0.84456062       0.27671126       2.49431515
H       -0.31417775      -0.55187285       2.25429058
H        0.67659682      -0.28768098       2.21079040
H        0.96070766      -0.40568909       1.28698528
H        0.05866522       1.62971139       0.53061354
H       -0.85684347       1.23709714       0.50691903
H        1.22439504       0.47415856       0.96387851
H       -0.21532637       1.00852251       2.62306929
H       -0.49393964       1.75196195       2.00047898
H        1.11243463       1.11702609       1.75603390
H        0.77408022       0.65096432       2.45058799
H        0.31887460       1.91163087       1.39453948
H        1.01422906       1.30173087       1.69878459
