20
Properties=species:S:1:pos:R:3 pbc="F F F"
H        0.00000000       0.00000000       0.00000000
H        0.69739223       0.29845181      -0.69129914
H        0.25665134       1.02099967      -1.27181268
H        0.93037391      -0.53911018      -1.23676527
H       -0.90016329       0.46354809      -0.16778871
H       -0.75056648       1.04673886      -0.93301427
H        0.20943734       0.64254546      -2.16769457
H       -1.32216811       0.78254700      -1.74344516
H        0.63632911      -0.30949664      -2.19287157
H       -1.58236194      -0.25899979      -0.42440769
H       -1.89298904      -0.04116130      -1.32113397
H       -0.72247726       0.51835513      -2.53331685
H       -0.05383378      -0.94537103      -2.45248652
H        0.38430834      -1.29277086      -0.95063788
H       -1.62881112      -0.85763371      -1.88407862
H       -0.96361023      -0.52528155      -2.59144974
H       -1.16975951      -1.52787971      -1.25688982
H       -0.13417022      -1.00592303      -0.15310471
H       -1.13504815      -1.12384415      -0.42833313
H       -0.16295090      -1.52856183      -1.68044829
