20
Properties=species:S:1:pos:R:3 pbc="F F F"
H        0.00000000       0.00000000       0.00000000
H        0.59380746      -0.49897972      -0.58861941
H        0.40353256      -0.23478785      -1.56192410
H        0.67091614       0.49504808       0.59843361
H        1.27637386       0.16412333      -1.92571235
H       -0.27030516       0.53658068      -1.49667609
H        1.95319366       0.07973012      -1.23083568
H        2.22625852       0.98638701      -1.00396633
H        1.14591491       1.16237760      -2.12519336
H       -0.51691282       0.69624960      -0.51330721
H        1.55787718      -0.29872409      -0.42550451
H        0.23964381       1.41302121      -1.87238634
H       -0.24740258       1.59004045      -0.23660669
H        1.60176682       0.34356728       0.35629460
H        1.99371707       1.17115796      -0.07668805
H        0.46600208       1.50108540       0.49583092
H        0.15574628       1.99940240      -1.02270758
H        1.28145969       1.91044736       0.15595946
H        1.09233212       2.18417335      -0.83106315
H        1.66511667       1.68519366      -1.44015908
