21
Properties=species:S:1:pos:R:3 pbc="F F F"
H        0.00000000       0.00000000       0.00000000
H        0.15274149      -0.33235219      -0.95892441
H        0.25876534       0.93864530       0.00681390
H        0.46686724       0.45338497      -1.62830424
H       -0.86725980      -0.14329264       0.27507374
H       -0.73011792      -0.64766073      -1.22198486
H       -1.26012111       0.73655498       0.41503435
H       -0.53522968       1.37242937       0.27991587
H        0.52921224       1.29094696      -1.03845096
H       -1.37662864      -0.49617994      -0.50984836
H        0.46948135       1.22179198      -0.90064830
H        0.63519776       0.91655672      -2.06415081
H       -2.00604868       0.92132592      -0.18288916
H       -0.96513069      -0.09188193      -1.98614442
H       -1.72227716       1.73779833      -0.73621589
H       -2.06007862       0.16766524      -0.79700422
H       -0.22025853       0.57836401      -2.20808983
H       -1.79443216       0.51706111      -1.78264189
H       -1.60938501       1.42248988      -1.65048981
H       -0.67400700       1.54049802      -1.89380646
H       -0.32157156       0.61309111      -2.15654111
