20
Properties=species:S:1:pos:R:3 pbc="F F F"
H        0.00000000       0.00000000       0.00000000
H        0.63883960       0.60990006      -0.40983751
H        1.24528956      -0.06034589      -0.89595765
H       -0.85031837       0.31530851      -0.35440117
H        0.20095634       1.25276756      -1.07939219
H        0.14168036      -0.93864530      -0.21663933
H        1.12998891       0.19029769      -1.82973719
H        0.92219931      -0.95554429      -0.79850322
H       -0.65670210      -1.27099752      -0.76931590
H        0.50892168       1.00212395      -1.96843433
H        0.78995460      -0.58430445      -2.31184626
H       -1.24349570      -0.50116390      -0.83617735
H       -0.05684501      -0.30115783      -2.70020080
H        0.65140152      -1.27085280      -1.67902017
H       -1.32217205      -0.29510045      -1.73042881
H       -0.30367035      -1.45562375      -1.72095287
H       -0.95693839       0.66056484      -1.81186628
H       -0.72253132      -0.94402540      -2.25645876
H       -0.24851817       0.68681544      -2.49276853
H       -0.65525860       0.99291706      -0.88890624
