21
Properties=species:S:1:pos:R:3 pbc="F F F"
H        0.00000000       0.00000000       0.00000000
H        0.65604281      -0.46966103       0.54505712
H        0.17526302      -1.13990700       1.15574944
H        1.38242960      -0.87902296       0.04221922
H        0.24243310      -0.28314662      -0.89950818
H       -0.44175377      -0.86633742      -1.27345705
H       -0.12276250      -1.83441281      -1.39345026
H       -0.82630241      -1.12209451       0.93242645
H        1.08120680      -0.86896747      -0.81828940
H       -0.93694049      -0.37468600       0.23783040
H       -1.07324934      -1.97089362       0.52423751
H        0.89744270      -1.77562439      -1.12204075
H       -0.29356825      -2.55408430       0.51739532
H       -0.52697814      -2.44431281      -0.75103867
H       -1.33132839      -1.70670176      -0.43332279
H        0.43295771      -2.05510449       0.93120712
H        0.13024694      -2.79140329      -0.12203610
H        0.97016615      -2.46307445      -0.30931598
H        1.14540958      -1.97071123       0.27291310
H        1.21277177      -1.03206587       0.02297659
H       -0.67894024      -2.20568156      -0.95626622
