21
Properties=species:S:1:pos:R:3 pbc="F F F"
H        0.00000000       0.00000000       0.00000000
H       -0.81573808      -0.52769721      -0.06456009
H       -0.09677097       0.68549418       0.68468529
H       -1.55243397      -0.09620762       0.50501847
H       -1.15258956       0.67516088       1.05131412
H       -0.24248517       0.72583753       0.70896506
H       -2.21134663       0.28224659      -0.10380620
H       -1.88151765       0.08748801      -1.05596471
H       -1.04698443      -0.41149169      -1.00463665
H       -2.21602631       1.29986310       0.02945492
H       -0.32101417       0.14472961      -1.47037148
H       -0.72688878       0.97646064      -1.77294421
H       -1.67322755       0.95956165      -1.54443061
H       -1.85122454       1.69137287      -0.92731607
H       -1.51293862       1.49462163       0.75130033
H       -0.77932507       1.96428263       0.31622511
H        0.35871661       0.39537320      -0.81982964
H       -0.93892360       2.12286234      -0.74064082
H        0.35685882       1.26217926      -0.76692575
H       -0.25510472       1.65320134      -1.25041640
H        0.06201693       1.48001778       0.13511384
