21
Properties=species:S:1:pos:R:3 pbc="F F F"
H        0.00000000       0.00000000       0.00000000
H       -0.51304650      -0.77136850      -0.44169885
H       -0.30282402      -1.62016761      -0.01343781
H        0.38879204      -1.48940194       0.80429983
H        0.53137892      -0.39891118       0.78219581
H       -0.22721362      -0.82204515      -1.37110317
H        0.57254165       0.43977645      -0.65334034
H        0.17246911      -1.70189285      -1.49019432
H        0.17246911      -2.22958994      -0.67190552
H        1.22133064      -1.92917836       0.55623305
H        1.90832591      -1.24368417       0.47751868
H        1.14253843      -2.42422652      -0.33933556
H        1.16912234      -1.54222393      -1.67596877
H        1.53220940       0.31538954      -0.31144929
H        1.50659180      -0.20415260       0.52851701
H        1.78046775      -1.99273694      -1.01770616
H        2.03779864      -0.18359017      -0.97737694
H        2.27603054      -1.04843450      -0.59876019
H        1.28775418      -0.62897825      -1.66026235
H        2.20975876      -1.25966966      -0.39266551
H        0.45256805      -0.13655096      -1.49781322
