20
Properties=species:S:1:pos:R:3 pbc="F F F"
H        0.00000000       0.00000000       0.00000000
H       -0.26684549      -0.92909771       0.11675546
H        0.40221074      -1.29494977       0.80366153
H        0.94880438      -0.56313854       1.14092815
H       -0.16413203      -1.66080189       1.57743931
H       -1.14360523      -0.97703505       0.39484236
H       -1.47364187      -0.07037812       0.52564716
H       -1.65066302       0.08929081       1.52389216
H       -1.08933401      -1.47603095       1.33676970
H       -1.04103994       0.71463919       1.81653023
H        0.72160494       0.25052226       0.65678203
H       -0.78762007       0.49897972       0.28059718
H       -1.41425776      -0.84015656       1.99869812
H        0.09563544      -1.16182220       2.37217259
H        0.78004444      -0.44513044       2.09258723
H        0.37137988       0.48227647       2.25455499
H       -0.52785259       0.99795943       1.07533050
H        0.39668119       0.88639665       1.31871045
H       -0.47061658       0.35664198       2.44485569
H       -0.67893827      -0.65538561       2.60962033
