21
Properties=species:S:1:pos:R:3 pbc="F F F"
H        0.00000000       0.00000000       0.00000000
H       -0.90169489       0.25064358      -0.26867270
H        0.15884455       0.34709048       0.89574409
H       -1.36522222      -0.66094911      -0.35507333
H        0.41379505      -0.42427802       1.52289224
H       -0.80057847      -1.45534813      -0.03346571
H       -0.61962336      -2.09821558      -0.81276059
H       -1.17229939      -1.73236346      -1.59635830
H        0.40288165      -1.24075043       0.90113860
H        0.32255912      -2.08131647      -1.05784726
H        0.78439224      -1.46660185      -0.37802368
H       -1.60199070      -0.80424178      -1.23356390
H       -1.26456583      -0.05058110      -1.74951053
H        0.06327754      -1.02162731       0.07481668
H        0.44609448      -1.69670272      -2.05831647
H       -0.47722074      -1.46708918      -2.44314170
H       -0.33481553      -1.76844764       1.25525641
H       -0.63701922       0.78686690       1.24396598
H       -1.29913294       0.66885883       0.53987771
H       -0.56706500      -0.50165802      -2.53220105
H       -1.21636438      -1.67183542      -1.68427873
