21
Properties=species:S:1:pos:R:3 pbc="F F F"
H        0.00000000       0.00000000       0.00000000
H       -0.72715116       0.63587439       0.12237607
H       -1.52301490       0.19609794       0.47059798
H        0.22931162      -0.15966894      -0.98754537
H       -1.39315009      -0.76436496       0.56390959
H       -0.89665139       1.04523635      -0.74466103
H       -1.83645630       0.86046541      -0.91983885
H       -0.42154455      -0.92403388       0.27440584
H       -0.28292203       0.61374676      -1.44500160
H       -0.88867086       0.14408574      -2.04545784
H       -1.81795406       0.32885671      -1.82106268
H       -1.97745311      -1.23402596      -0.05743515
H       -2.57674003      -0.51147807      -0.47228879
H       -2.27225208       0.40011460      -0.11227515
H       -2.27731800      -0.61170441      -1.55942011
H       -2.52602577      -0.52274942      -0.56767654
H       -2.92798495      -1.94001532      -0.41499156
H       -2.91485119      -1.94001532      -0.44812989
H       -2.92798495      -1.94001532      -0.41499156
H       -2.92798495      -1.94001532      -0.41499156
H       -2.91485119      -1.94001532      -0.44812989
