21
Properties=species:S:1:pos:R:3 pbc="F F F"
H        0.00000000       0.00000000       0.00000000
H       -0.01035373      -0.77460212      -0.58986890
H       -0.72452766      -0.72392547      -1.24975419
H        0.80807054      -0.82527876      -1.11491609
H       -0.37420538      -0.77460212      -2.15681934
H        0.85400110       0.43977645      -0.15918432
H       -0.73845625       0.64286757      -0.30777851
H       -1.16803956       0.12487364      -1.07397521
H        1.33063889      -0.05067664      -0.84110081
H        0.66396314       1.30462086      -0.56414187
H       -0.60667515       0.07419699      -2.57342339
H        0.64878631      -0.82801801      -2.09389997
H        1.06654787       1.35803676      -1.50668955
H       -1.16366541       0.63041830      -1.91486168
H       -0.35776669       1.35803676      -0.64500481
H       -0.67370641       1.44407916      -1.70048523
H        1.45639825       0.50510216      -1.63062930
H        0.29169649       1.44699180      -2.17378497
H        1.00673079       0.06532571      -2.37390375
H       -0.57717168       1.44243002      -1.58988583
H        0.61943984       1.38535810      -1.03750157
