21
Properties=species:S:1:pos:R:3 pbc="F F F"
H        0.00000000       0.00000000       0.00000000
H        0.14728610      -1.02954066      -0.28719354
H        0.75860566       0.61471456      -0.31617635
H        0.99101233      -1.01172817      -0.87125915
H        1.67486238      -1.62644267      -0.41540942
H        0.38356355       1.22942913      -1.04747200
H        0.78178620       1.06976020      -1.97980690
H       -0.62313378       1.03467059      -1.09167135
H        2.50566411      -1.07022142      -0.18365496
H        2.57018423      -1.11815882       0.73388362
H        0.36597121      -1.52458870       0.58483171
H        1.30108643      -1.92349982       0.44428539
H        2.47088861      -0.10043848       1.07814062
H       -0.87867129       0.73621881      -2.03980160
H        1.83248711      -1.64585602       1.08800149
H       -0.07917744       0.78689545      -2.59324741
H        1.39294028       0.31609952      -1.89889216
H        2.28580308       0.42725873       0.28105849
H        1.02886653      -0.43130898      -2.50068521
H        2.33015275      -0.15856212      -0.56047046
H        0.16099614      -0.09895679      -2.93619275
