21
Properties=species:S:1:pos:R:3 pbc="F F F"
H        0.00000000       0.00000000       0.00000000
H        0.30968034       0.89379078      -0.23086154
H       -0.12789583       1.25964284      -1.08409262
H       -0.55705321      -0.31530851      -0.73371202
H        0.73099792      -0.63587439       0.09678159
H        0.69337595      -1.29695702      -0.61709183
H        1.47295451      -1.24628043      -1.19825459
H        1.22026646      -0.91392827      -2.13581228
H       -0.15289611      -1.08991063      -1.16349053
H        1.32444394       0.87597835      -0.38337889
H        1.47098660       1.15912497      -1.30338657
H       -0.69770736       0.48827434      -1.44964612
H        1.56433487      -0.05005354      -0.02846762
H        0.24793935      -0.86325163      -2.14434481
H       -0.27732387       0.17296582      -2.26935291
H        1.87133765       0.30148256      -1.70023978
H        0.53028429       0.75878668      -2.50999141
H        1.63171065       0.01347864      -2.29058313
H        0.63032627       1.41986930      -1.80216217
H        0.84056830       0.65634620      -2.40949059
H        2.02273798      -0.47491193      -0.80321950
