21
Properties=species:S:1:pos:R:3 pbc="F F F"
H        0.00000000       0.00000000       0.00000000
H       -0.33764970       0.29845181       0.92208624
H       -0.59734547      -0.11091015       0.07766819
H       -1.15597689       0.49321038       1.51007748
H       -1.09349036      -0.47602588       1.57890689
H       -1.72712421      -0.97500563       1.03339028
H       -1.11350703      -0.22134495       1.09280705
H       -1.95727277       0.99219012       1.27132010
H       -1.83706391      -0.59655142       0.14302707
H       -1.13373351      -0.57965243       0.81615525
H       -1.52678466       0.58282816       0.49985152
H       -2.24645329      -0.21809721      -0.65524220
H       -2.34564972       0.26037890       0.75977671
H       -1.55897784       0.09721130      -0.04203826
H       -0.69744599       0.58474553       0.57945585
H       -1.38872981      -0.84346116       0.04292223
H       -1.49332058       0.03384906       1.09679770
H       -2.31280041       0.45265400      -0.02752513
H       -0.80848461      -0.77336067       0.38809806
H       -3.02848554       0.42780793      -1.15694249
H       -3.71706080      -0.23327470      -0.96486235
