21
Properties=species:S:1:pos:R:3 pbc="F F F"
H        0.00000000       0.00000000       0.00000000
H        0.85755634      -0.19475858       0.52914101
H       -0.51253718      -0.81366080      -0.15271769
H        1.53305435      -0.14134267      -0.24168521
H        0.92917156      -0.05238767       0.58338237
H       -1.30214572      -1.22302270      -0.54895258
H       -0.84900051      -1.72031772      -0.26597208
H        0.38264799      -0.82964635       0.06344394
H       -2.12905145      -0.87593222      -0.92818344
H       -2.39091611      -1.51879978      -1.68414116
H       -1.37363219      -1.53661227      -1.54945636
H       -0.94004083      -2.39425468      -1.18921757
H       -0.83682650      -2.69270658      -0.21269459
H        1.51575911      -0.85161817      -0.23411788
H       -0.57676303      -1.52941036      -0.92819214
H       -2.34419918      -2.43813944      -1.65300000
H       -1.88151085      -1.40166891      -1.64278984
H        1.14998746      -0.42012858      -1.09047747
H        1.05812693      -1.35059786      -0.93386990
H       -2.87988687      -1.68447876      -1.34788513
H       -1.38329625      -2.58962011      -1.69518864
