21
Properties=species:S:1:pos:R:3 pbc="F F F"
H        0.00000000       0.00000000       0.00000000
H       -0.43620220       0.58582085      -0.72101700
H       -0.28582352       0.40104988      -1.66510749
H        0.12960425      -0.20885018      -2.30032611
H        0.15947500       0.15966894      -1.00119793
H       -0.64463037      -0.44371980      -0.47458035
H        0.30617112      -0.69797349      -1.54548979
H        0.05487183      -0.56702554      -1.65613616
H        0.34062037       0.08987340      -2.90949273
H        0.02498567      -0.68147433      -2.66545892
H        0.08283263       0.52043515      -0.94149524
H       -0.71820420      -0.98395395      -0.21399906
H       -0.63390827      -0.83247316      -1.17212677
H       -0.75736600       0.27587843      -2.69980836
H       -1.08323419      -0.10677570      -1.01205015
H       -1.11971045       0.74553943      -3.47193909
H       -1.16478646       0.77485812      -3.42993760
H       -1.24781632      -1.42898989      -0.73898387
H       -1.49827576      -1.61779308      -0.93477273
H        0.47138962      -0.71483874      -2.93865085
H        1.62668550      -0.43812498      -3.28288770
