21
Properties=species:S:1:pos:R:3 pbc="F F F"
H        0.00000000       0.00000000       0.00000000
H        0.15274149      -0.33235219      -0.95892441
H        0.56539476       0.77460212      -0.16846745
H       -0.32985124       0.37226537      -0.29957199
H        0.83302599      -0.23709527      -0.31335491
H        0.30312020      -0.14758122      -1.90301490
H        0.52989805       0.38011599      -1.11677802
H        0.94920504       0.19950926      -2.54345512
H        0.49217963       0.52266473      -1.14912450
H        1.26201379       0.54659975      -1.68920708
H        1.03102458       0.43982518      -0.15496135
H        0.57444227      -0.18065807      -0.50120568
H        0.73316967       1.29825795      -1.74980092
H        0.81998879       1.33337235      -1.87343705
H       -0.08574197      -0.66785514      -0.14894839
H        0.13212281      -0.60270095      -0.28740713
H        0.13212281      -0.60270095      -0.28740713
H        0.37395063      -0.43866053      -0.40535229
H        0.59761411      -0.58474553      -0.68195111
H        0.87296021       1.17705297       0.05252708
H        1.26826417       1.41047645       0.05446574
