21
Properties=species:S:1:pos:R:3 pbc="F F F"
H        0.00000000       0.00000000       0.00000000
H        0.15607943       0.96046287      -0.03480161
H       -0.72670323      -0.55577880      -0.33327657
H       -0.64218801       1.30755329      -0.47110221
H       -0.02577138       0.89819133       0.16175976
H       -1.05103827      -1.35038900      -0.79312694
H       -0.06396962       1.06980205      -0.12473454
H       -1.91891241      -0.91061258      -0.83123124
H       -0.10999095      -1.29971242      -1.03791833
H       -0.90481895      -0.65684485      -1.12898803
H       -0.58854711      -0.08415225      -0.24118266
H       -1.42967963      -0.89371359       0.01044953
H       -0.30142412       0.31361639      -0.33782893
H       -1.63049221      -1.31865561      -0.81349188
H        0.64567459      -1.61809754      -1.96386576
H        0.51623797      -2.04052234      -1.80526185
H        0.72700179      -1.49213398      -1.92797184
H        0.78192765      -1.53442144      -1.86203671
H        0.76350641      -2.00570178      -1.55595279
H        0.75917572      -1.65938520      -1.84101415
H        0.62963164      -1.81971264      -1.88191855
