15
Properties=species:S:1:pos:R:3 pbc="F F F"
H        0.00000000       0.00000000       0.00000000
H       -0.61304885      -0.15966894      -0.80746567
H       -0.27380902       0.52595156       0.83769172
H       -0.54115498      -0.10625303       0.21493447
H       -1.03278100       1.13585162       0.83103138
H       -0.82486480       1.02493131       0.20886928
H       -1.40780556       0.29828966       0.37149861
H       -1.57263827       0.06160407      -0.05338165
H       -0.54742283       0.81092590       0.45481288
H       -1.01503408       0.13076572      -0.34166291
H       -0.51369488      -0.62147647      -1.09428322
H       -0.79640222       0.00996900      -1.52656281
H       -0.74280339      -0.11047912      -1.68749774
H       -0.72505200      -0.15746003      -1.58912110
H       -1.39217925       0.25533772       0.32146752
