21
Properties=species:S:1:pos:R:3 pbc="F F F"
H        0.00000000       0.00000000       0.00000000
H        0.59380746      -0.49897972      -0.58861941
H       -0.34566414      -0.10006854      -0.69626212
H        0.81728655      -0.33235219      -0.52431738
H       -0.81735504      -0.82576597      -0.76715654
H       -1.49125659      -0.54096723      -0.54458976
H       -0.33009130       0.07585812      -1.10446262
H       -1.01566827       0.30783188      -0.58222932
H       -1.17818880      -0.34620863       0.41321063
H       -1.40071893       0.39678687       0.36494905
H       -0.60966206       1.15663099      -0.33170986
H        0.16748750       0.71235704      -0.11492185
H       -0.38305259       0.87348437       0.57191449
H       -0.70064616      -0.55786622       0.02348632
H       -0.73752052       0.03168026      -0.06051549
H        0.15008277       0.44816518      -1.10649812
H       -0.63467133       0.09764248      -0.29378235
H       -0.30726469       0.03257686      -1.17603636
H        0.18190524       0.65837806      -0.65395212
H       -2.02683735      -0.07695079      -0.49272925
H       -1.83905768       0.07842672      -0.55986005
