21
Properties=species:S:1:pos:R:3 pbc="F F F"
H        0.00000000       0.00000000       0.00000000
H        0.36038706      -0.22961354      -0.93312520
H       -0.67574459      -0.61471456      -0.46778110
H        0.17852265      -0.63161355      -0.93468881
H        0.01877356       0.38076609      -0.98846072
H       -0.70775247       0.87974584      -0.57464898
H       -0.52813947       0.34574831      -0.52930087
H       -0.12445421      -0.02055283       1.17747319
H       -0.46009177      -0.91434360       1.36864424
H       -0.38557419      -0.86935192       0.77820218
H       -1.29557586       0.38820711      -0.25589433
H       -0.68660355      -1.34583318       2.27187896
H       -0.25530815       0.29469031      -0.52649558
H        0.14464906       0.31179935       2.11045194
H        0.05236745      -0.76264238       2.02313948
H       -0.27225438      -0.56804830       2.12142992
H        0.03188458      -0.63660342       2.28785419
H        0.38871723      -0.63193953       1.51954973
H       -0.85896474      -1.30193162      -0.87087816
H        0.04637320      -0.69273669       1.70010304
H        0.22958598      -0.62749165       1.07198191
