21
Properties=species:S:1:pos:R:3 pbc="F F F"
H        0.00000000       0.00000000       0.00000000
H        0.36925858       0.05341591      -0.95609558
H        0.11063816      -0.74740851      -0.69459605
H       -0.87012690       0.01689900      -0.43663993
H       -0.40278631       0.17780280      -1.62077475
H       -0.82612216       0.55625701      -0.82981318
H        0.06469917      -0.71687728      -1.43549430
H       -0.07929581      -0.13458179      -0.98408914
H       -0.06838709      -0.20334464      -0.94369954
H       -0.56674957      -0.36748138      -0.63342053
H       -0.80281508      -0.43913710      -0.85721523
H       -1.24817657      -0.56256706      -0.46951979
H       -1.23092997      -0.56256706      -0.51303494
H       -1.23092997      -0.56256706      -0.51303494
H       -0.71074325      -0.50053769      -0.89675272
H       -0.41575789      -0.00899315      -0.69965553
H       -0.39041051       0.02223265      -0.65712577
H       -0.94243264      -0.88449955      -0.90443033
H       -1.17587900      -0.83902657      -0.99021673
H       -1.17003429      -0.83902657      -1.00239229
H       -0.35033184       1.15035105      -0.53623462
