21
Properties=species:S:1:pos:R:3 pbc="F F F"
H        0.00000000       0.00000000       0.00000000
H       -0.90169489       0.25064358      -0.26867270
H        0.23673759       0.34709048      -0.87837595
H       -1.22655916      -0.71743190      -0.16563365
H       -0.37391466      -0.05182070      -0.15636653
H        0.93888634       0.53186142      -1.52714992
H        1.40452707      -0.31693769      -1.63097560
H        1.05186534       0.23928362      -0.84384692
H        0.00950891       0.62081641      -1.95337582
H        0.62127459      -0.87271649      -1.47070622
H        1.09958196      -0.05624408      -1.07331622
H       -0.78557026      -0.50721902      -0.05914742
H       -0.30987573      -0.74726713      -0.36975348
H        0.81001759       0.62831157      -0.28980148
H        0.95609391      -0.82937944      -1.10190022
H        0.18453735      -1.34386349      -1.33381081
H        0.05072232       1.57816911      -2.73539591
H       -0.33551356       1.49157929      -2.76115656
H        0.57264560      -1.73292780      -1.39214289
H       -0.30885941       1.60477042      -2.63179636
H       -0.30036816       1.49630415      -2.84793711
