21
Properties=species:S:1:pos:R:3 pbc="F F F"
H        0.00000000       0.00000000       0.00000000
H        0.87747955       0.49504808      -0.19565487
H        0.46355331      -0.17519787       0.46218961
H        0.40415710      -0.77460212      -0.42977849
H        1.38262606      -0.14082631      -0.73282486
H        0.73482203      -0.53973746      -1.42169619
H        0.16138059      -1.15445209      -0.83295614
H        0.65338904      -0.83764303      -0.92251873
H        1.52519560      -0.26521322       0.27589995
H       -0.04880719      -1.83244228      -0.86454701
H        0.82872021      -0.70498967      -0.24331063
H       -0.57519799       0.60990006      -0.49520713
H       -0.67210472      -1.26531100      -1.07435048
H        0.90628374      -0.08480254       0.21396828
H        0.65340102      -1.24061584      -1.33810306
H       -0.65536511      -1.99100852      -0.59765553
H        0.67124981       0.40153128      -1.25057256
H       -0.33485955      -1.18809056      -0.91536093
H       -0.09429714       0.48119119      -0.44864133
H       -0.09269047      -0.01447344      -0.94779682
H        1.25412977       0.56049454      -1.62451005
