8
Properties=species:S:1:pos:R:3 pbc="F F F"
H        0.00000000       0.00000000       0.00000000
H        0.05321160       0.83173102       0.50344110
H        0.22925681       0.90665692       0.27106357
H        0.04280348       0.86878568       0.30284834
H       -0.74010259      -0.19475858      -0.68384290
H       -0.75870490       0.28724849      -0.55222547
H       -0.79845685       0.29157048      -0.58344966
H       -0.39448911      -0.04935896      -0.35307071
