21
Properties=species:S:1:pos:R:3 pbc="F F F"
H        0.00000000       0.00000000       0.00000000
H        0.63772744       0.77136850       0.22719663
H       -0.72861528       0.72254789       0.01918610
H        0.32022119       0.68697530      -0.68938863
H       -0.59532028       0.79439902       0.26047617
H       -0.10099053       1.15898311      -0.01996559
H       -0.32697546       0.73217338      -0.11211163
H       -0.22092563       0.90213424      -0.41291469
H       -0.22404701       0.86488533      -0.41524154
H       -0.43223554       0.64060277       0.18021959
H       -0.80317372       0.69603837       0.11315918
H       -0.79626173       0.59595108       0.31539410
H       -0.23696649       1.42771506      -0.01875428
H        0.04566892       1.44467688      -0.07548808
H        0.14569679       1.06429660      -0.10085794
H        0.26095808       1.41860950      -0.11967913
H        0.25637081       1.04012048      -0.12864995
H        0.38697860       1.38109124      -0.19419050
H        0.40524638       1.38109124      -0.15243936
H       -0.62625927       0.30266666      -0.29961592
H        0.36467940       1.39528358      -0.12275194
