21
Properties=species:S:1:pos:R:3 pbc="F F F"
H        0.00000000       0.00000000       0.00000000
H       -0.39122835      -0.01598554      -0.83368021
H        0.88762581       0.43148959       0.28153342
H        0.74304646       1.43741262       0.13821729
H       -0.04949366       1.02440715       0.03826617
H        0.08413732       1.28593183      -0.56246322
H        0.19255289       0.05633169      -0.20166565
H        1.55350685       2.05212712       0.27461374
H       -0.01728022      -0.37398276      -0.07188064
H        0.82001108       0.30278072       0.75992894
H       -0.70980394       1.51945519      -0.57184988
H        1.61183643       0.43788522       0.42990705
H        0.84551036       0.36261562       0.83144653
H       -1.22921705       2.31406546      -0.78833425
H       -0.99867713       2.38429952      -0.23029849
H        0.94472063       1.19697678      -1.11455691
H        1.42089629       0.34817767      -1.08526969
H       -0.72887421       2.36740041       0.70510602
H       -0.30098808       2.57825732      -1.13750112
H        2.02079058       2.88385820       0.07985637
H       -0.46959901       2.33096457      -1.39723134
