21
Properties=species:S:1:pos:R:3 pbc="F F F"
H        0.00000000       0.00000000       0.00000000
H       -0.13959605      -0.55577880       0.78719991
H        0.10701165      -0.39610988       1.77056885
H       -0.75560200      -0.17827138       1.37496173
H        0.27744561       0.48276633       1.98705626
H       -0.61221528       0.73181123       0.19417982
H       -0.03948912       1.39435899       2.33616233
H        0.16709803      -1.01237965       0.02212320
H        0.01676274       0.58320928       1.47711849
H       -0.62169933       0.32832882       0.59500247
H       -0.64049602      -1.45215607       0.34220037
H       -0.72638047       1.01495790      -0.73040396
H       -0.67370307       2.09117579       1.92929244
H        0.09560122      -0.15860486       1.92169845
H       -0.94325298      -0.47283691       0.39315292
H       -1.60435772       1.79272401       1.61603189
H       -0.70787096      -0.38519889       0.57561481
H       -2.53477859       2.04336762       1.47619104
H       -1.27998626       1.45530140       1.50959563
H       -0.14022481       0.91235197       2.24943566
H       -2.03977251       1.84613991       0.68819320
