21
Properties=species:S:1:pos:R:3 pbc="F F F"
H        0.00000000       0.00000000       0.00000000
H       -0.02074104      -0.97334045      -0.01546210
H       -0.17034337      -1.95265961      -0.28356114
H       -0.84399283      -0.15148079      -0.46129227
H       -1.00467312      -2.03705287      -0.77836680
H        0.73394406       0.63587439       0.07106809
H       -1.39470744      -1.34023619      -1.42307103
H        1.57904053       0.25742018       0.37214193
H       -0.73989278      -1.47232020      -0.44196057
H       -0.66891187      -0.64341944      -1.22060835
H       -0.71287978      -1.17941046      -1.26068425
H        0.36409730       1.24577451      -0.59172612
H       -0.77926165      -0.46354809       0.48083076
H       -0.06673419       0.65368682      -0.57074255
H       -0.72839618      -0.58155620      -0.48433641
H       -1.43675876      -1.57350481       0.02894288
H       -0.94160247      -1.52784467       0.55186129
H       -1.41799009      -0.75984401       0.56341904
H       -0.79791439       0.21391037      -1.03981948
H       -1.29314554      -0.88423091      -0.44765252
H        0.44118449       0.27769905      -0.92370713
