21
Properties=species:S:1:pos:R:3 pbc="F F F"
H        0.00000000       0.00000000       0.00000000
H       -0.19310522      -0.77460212      -0.55746114
H       -0.64829087      -0.43977645       0.57825297
H       -0.01300058      -0.97334045       0.02236632
H       -0.78213030       0.47200781      -0.11755297
H       -1.24059892       0.22136423      -0.93916440
H       -1.57078075      -0.65761495       0.80100775
H       -0.96359855      -1.33919251       0.14822210
H       -1.12722468      -0.43464911      -0.03422260
H       -1.90230179      -1.43221712       1.28901017
H       -1.35407817      -0.79625225      -0.86914384
H       -1.61646891      -1.48289371       0.35960585
H       -0.62567878      -0.30458733      -0.30783874
H       -0.88377303       0.14357680      -0.59766126
H       -2.49271202      -1.35850680      -0.16005701
H       -1.05803096      -1.28303730      -0.92511690
H       -0.80502838      -0.95457876      -0.84729540
H       -1.98749626      -0.58713830       0.29057768
H       -2.53958321      -2.17216754      -0.69280475
H       -1.92558908      -2.45531416      -1.39344740
H       -2.33592224      -2.88680363      -0.55752438
