21
Properties=species:S:1:pos:R:3 pbc="F F F"
H        0.00000000       0.00000000       0.00000000
H       -0.06381270       0.34709048       0.90747839
H        0.58343911       0.07924911       0.30942827
H        0.69492555       0.95699054       0.92745775
H        0.94214869       0.95909679       0.09669277
H       -0.28858924       1.15174913       0.70815963
H       -0.74633312       1.09559393      -0.26726055
H       -0.33230135       0.23795152      -0.64981925
H       -0.02382314       0.61640573       0.19260257
H        1.81541276       1.59293580      -0.50782037
H       -0.11360134       0.17735276      -0.20428804
H        0.14116919       0.47177696       0.63062012
H        0.70033485       0.53972864       1.06094575
H        2.26917052       2.02442551      -1.32098985
H        2.58106375       1.16144621      -1.03783870
H        2.34833121       2.11888742      -1.20974398
H        0.54075247       0.63131398       0.25487518
H       -0.76986301       1.59681129       0.98228157
H        0.31172758       0.41919816       0.19132686
H        1.44168305       0.55754107       1.77045918
H       -0.71950090       1.86082911       1.21765137
