21
Properties=species:S:1:pos:R:3 pbc="F F F"
H        0.00000000       0.00000000       0.00000000
H        0.17388797      -0.66108263       0.69339287
H        0.45013765      -0.81366080      -0.28877872
H       -0.53014147      -0.87668937      -0.06074250
H       -0.94281250      -1.05147266      -0.86541092
H       -0.09152520      -1.28108621      -0.34013814
H        1.30337560      -0.86433744      -0.75512391
H        0.35534090      -0.63472390      -1.07423472
H       -0.40268385      -0.10877234      -1.52378714
H       -0.86116534      -0.76832604      -1.79343176
H       -0.32067710      -0.61684525      -0.99782705
H       -1.39887428       0.16127193      -2.40702367
H       -0.01235360      -0.63210452      -1.21541667
H       -0.65154701      -0.05615519      -0.85817277
H        0.70685089      -0.24138860       0.77860165
H        0.24855483      -0.26011452      -0.19799513
H       -0.65453017      -0.08937165      -1.83153212
H        0.54011363       0.60408908       0.45348021
H        1.40332031       0.55889100       0.53706485
H        0.91450334      -0.39945006       0.61933041
H        0.73655963      -0.27624649       0.38839462
