21
Properties=species:S:1:pos:R:3 pbc="F F F"
H        0.00000000       0.00000000       0.00000000
H       -0.46163812      -0.66108263       0.54582143
H        0.71503544       0.01689900      -0.66068119
H        0.02194848      -0.87984765      -0.41646999
H        0.56493217      -1.73749006      -0.26500320
H       -0.27864516      -1.89715898       0.29731965
H        0.53812182      -0.82075155       0.71407604
H        0.37522435      -1.14975047       0.55647051
H       -1.48847187      -0.06448621       0.20018673
H       -2.36429811       0.12028477       0.58339536
H       -0.62275344      -0.41600472      -0.53614926
H        0.61129475      -1.69109559       0.41514459
H       -1.49098456      -0.79445893      -0.76199919
H       -1.97112072       0.93675721       0.10161921
H       -1.08779943       0.43468678      -0.46210158
H        0.29745322      -0.46047947       0.53870267
H       -0.87625927      -1.31241345      -0.38463145
H        0.74128407      -0.93876630      -0.28740022
H       -0.66156614       0.28260428      -0.17904410
H       -1.02385330      -0.32245111      -0.12377131
H       -0.83878165      -1.28129601      -0.38903826
