21
Properties=species:S:1:pos:R:3 pbc="F F F"
H        0.00000000       0.00000000       0.00000000
H       -0.50007260       0.47200781      -0.61275923
H       -0.89709055       0.37845421      -0.00787237
H       -1.03745866       1.02778661      -0.02082431
H       -0.16212998       0.91159266       0.44276014
H       -0.92012453       2.03370953      -0.18718357
H       -0.09330106       1.53472984      -0.31145382
H       -0.63591158       1.87658572      -0.27843052
H       -2.31194234       1.14411235       0.38341096
H       -0.62081242       1.15750194       0.06810814
H       -0.86701113       0.38603222      -0.20857361
H       -3.29205275       0.84566057       0.44369262
H       -3.11793923      -0.10867679       0.52727258
H       -3.53811049      -0.60765648       1.25013924
H       -2.57824969       0.15472955       0.32403135
H       -2.17456794      -0.42512107       0.24878579
H       -1.80551696       0.01465538      -0.53763580
H       -1.53913665       0.17345546       0.61389482
H       -2.39704347       1.47646451      -0.58386552
H       -2.60117602       0.61162013      -0.98190439
H       -3.56959462      -0.98611069       2.14671159
