16
Properties=species:S:1:pos:R:3 pbc="F F F"
H        0.00000000       0.00000000       0.00000000
H       -0.30729049       0.46966103      -0.79564559
H       -0.49695224      -0.11352977      -0.03935343
H       -1.16513729      -0.55330622       0.51579183
H       -0.29534483      -0.25485441       0.97154546
H       -1.24329960       0.76811284      -0.49876621
H       -1.50404930       0.51746929       0.40525159
H       -1.66814387      -0.37632149       0.05557755
H       -0.17572218      -0.22715572      -0.05371559
H       -0.83581513      -0.60593504       0.61040211
H       -1.55981088       0.64372593       0.46956864
H       -1.39749908       0.44719490       0.11611733
H       -1.62049627       0.12139443       0.05850812
H       -0.25656015      -0.58585465       0.53070951
H       -0.42106739       0.18426108      -0.40118179
H       -0.25866595      -0.61575615       0.55464458
