21
Properties=species:S:1:pos:R:3 pbc="F F F"
H        0.00000000       0.00000000       0.00000000
H       -0.93989587      -0.24138860      -0.47165081
H       -0.30167991       0.33235219       0.92295998
H       -0.81728667      -0.33235219      -0.52431726
H        0.53232992       0.71080637       1.25350654
H        0.73518872      -0.06379575       1.80749273
H       -0.47979820       0.83519328       1.13753903
H       -0.53222203      -0.28351083       0.06757098
H       -0.52386791      -0.34272560      -0.33607909
H       -0.13460368       0.23465607       2.26324654
H        0.41943777       1.02611494       0.33923256
H        0.98472291       0.30205634       0.88163704
H       -0.28699785       1.17759573      -0.31350261
H        0.45001590       1.46074235       0.25632155
H       -0.69027215       0.31275135      -0.11991826
H       -0.36790466       0.70596921      -0.45849395
H        0.15864676      -0.29340929       0.99005723
H        0.44967192      -0.51900458       2.06657791
H       -0.13113320      -0.25116321       1.40380788
H        0.03704470       0.57979655       0.44701812
H        0.24372905      -0.25263417       0.51463038
