21
Properties=species:S:1:pos:R:3 pbc="F F F"
H        0.00000000       0.00000000       0.00000000
H        0.41703188       0.87984765      -0.00365971
H       -0.15083498      -0.36585209      -0.94695562
H        0.18508537       0.52769721      -0.79708213
H       -0.39616475       0.57279325      -1.02953422
H       -0.85389829       0.65718645      -0.17430401
H       -0.64100456       1.43763757      -1.40391171
H       -0.85237020      -0.92163086      -1.33038628
H       -0.51567787       0.01781246       0.88717693
H        0.43273070       1.74469209       0.44339576
H       -0.48341185       0.89766008      -0.49580574
H       -0.62363142       1.15741193      -0.62330198
H       -1.56058121      -0.70379233      -0.69868666
H       -0.75976682       1.07964039      -0.56363112
H       -0.05870509       1.90948784      -0.25337419
H       -0.07162221       1.41627717      -0.33446902
H       -0.10298538       0.97836161      -0.52514565
H        0.29772773       0.88655031      -0.26520646
H        0.31536311       0.95031774      -1.51349020
H        0.66252881      -0.06158423      -0.24921991
H        0.65100795       0.08611401      -0.27133113
