21
Properties=species:S:1:pos:R:3 pbc="F F F"
H        0.00000000       0.00000000       0.00000000
H        0.52691501       0.55577880      -0.60127473
H       -0.40909410       0.25732699      -0.30439535
H        0.37891489       0.80642235      -1.53043270
H       -0.34988052       1.12173080      -0.96696246
H        0.34499583       0.68841428      -0.56452149
H       -0.99494231      -0.70598930       0.20358543
H       -0.99494231      -1.77028584       0.38078552
H       -1.85760581      -1.82370174      -0.17264247
H       -1.06146228      -1.16038585      -0.37529516
H       -1.82515717      -1.75430036       0.77931476
H       -1.73093653      -0.58160239       0.90797478
H       -2.30133295      -0.90550125       0.80860192
H       -1.46371830      -0.82689345       0.52911037
H        0.82499218       1.03225350      -1.53434730
H       -1.05080724      -1.62941337       0.08325449
H       -1.35667086      -2.05604243      -0.19463614
H        1.25855970       0.30655605      -1.73318756
H        0.19967747       0.47441316      -1.85451210
H       -2.91399884      -0.16469133       1.58681750
H       -2.51703453       0.68410778       1.85143113
