5
Properties=species:S:1:pos:R:3 pbc="F F F"
H        0.00000000       0.00000000       0.00000000
H        0.73469222      -0.22961354      -0.67884368
H        0.60574871      -0.46966103      -0.60045636
H        0.66784132      -0.26784137      -0.57496679
H        0.17851301      -0.27097964      -0.38039866
