21
Properties=species:S:1:pos:R:3 pbc="F F F"
H        0.00000000       0.00000000       0.00000000
H       -0.29363519      -0.58319080       0.72230726
H        0.03268002       0.43148959       0.93063027
H       -0.83735520       0.01689900      -0.49660000
H       -1.11189246      -1.11088800       0.71512669
H       -1.33927059       0.68714494       0.09684351
H       -1.54022467      -0.61897540      -0.27366686
H       -0.92883426      -0.18954444       0.43784451
H        0.14094394       0.02212763       0.05383915
H       -1.36510646       0.59226257      -0.39339095
H       -0.99696088       0.75151795       1.28362846
H       -0.91602635       0.02726299       0.32372719
H       -1.23939395       0.46837133       0.38412029
H       -2.88770199      -1.00510204       0.26038456
H       -2.88770199      -1.00510204       0.26038456
H       -2.88770199      -1.00510204       0.26038456
H       -2.88770199      -1.00510204       0.26038456
H       -3.12955093      -1.75251055       0.92084920
H       -2.86812973      -1.00510204       0.30734420
H       -2.88770199      -1.00510204       0.26038456
H       -2.88770199      -1.00510204       0.26038456
