21
Properties=species:S:1:pos:R:3 pbc="F F F"
H        0.00000000       0.00000000       0.00000000
H       -0.51304650      -0.77136850      -0.44169885
H       -0.26534054      -1.67802548      -0.18738431
H        0.42081448      -1.32862961       0.56842059
H        0.46111119      -0.64286757      -0.65377492
H        0.52701330      -1.99333405      -0.65729588
H        0.72670323       0.55577880      -0.33327651
H        0.73543596      -1.53665829      -0.92570299
H        0.80445838      -0.39128309      -0.12093519
H       -0.73982418      -1.29906571       0.34453809
H       -0.36926943      -0.66319132       0.98204398
H        0.28474534      -1.35248160       0.37151742
H        0.94405448      -0.94706190       0.66626471
H        1.13412356       1.05475855      -1.06340587
H       -0.71082079      -0.12438690       0.72978455
H       -0.89293867      -1.49038100       0.95509511
H        1.70306110       1.30540216      -1.81277144
H        1.63658881       0.35834026      -2.02891064
H        1.35723686       1.66465855      -1.78887343
H        1.10169768       0.97178352      -1.06447911
H        1.03922987      -1.35578978      -0.57723403
