21
Properties=species:S:1:pos:R:3 pbc="F F F"
H        0.00000000       0.00000000       0.00000000
H        0.35866648      -0.83756196      -0.47241095
H        1.08079708      -1.53437877      -0.68758011
H       -0.33270270      -0.40936196       0.81840861
H       -0.09608307       0.01123714      -0.32817543
H        0.33600932       0.21598643       0.71790224
H        1.87777925      -2.03335857      -0.43479663
H        0.45793813       0.06264585       0.83922803
H        1.63217998      -1.18788087      -0.16426709
H        0.39104316      -1.44450080      -0.84041178
H       -0.02780610      -1.18465245      -1.29595697
H        0.25438333      -1.14714456      -0.81178880
H        1.41107571      -2.21159410      -0.45528740
H        1.79750323      -0.18195784      -0.04547764
H       -1.14325857      -1.33895993       0.72553682
H        1.77029490       0.75668746       0.21194346
H        1.93700278       0.52712208       0.60706085
H       -0.39838642      -0.66871399       0.50359154
H        2.27550101       0.63170296      -0.28534263
H       -0.36285558      -0.17785633       0.75498366
H       -0.44535744      -1.32297444       0.12469053
