21
Properties=species:S:1:pos:R:3 pbc="F F F"
H        0.00000000       0.00000000       0.00000000
H        0.83968246      -0.37845421      -0.31585881
H        0.50191486      -0.89468008       0.03087036
H       -0.06536291      -0.81647241       0.61840469
H        1.28913081      -1.27313423      -0.54139739
H        1.27689159       0.30703998      -0.85158885
H        0.82433313      -0.58764005      -0.02941918
H        0.52611500      -0.54058325      -0.32855186
H       -1.10486257      -1.37510729       0.98873639
H       -1.15162420      -1.29721153       0.96294034
H       -1.09347820      -1.33647275       1.06824577
H       -1.13965321      -1.25737107       1.04418278
H       -1.13743007      -1.21699941       1.08747649
H       -1.10863161      -1.33647275       1.03188777
H       -1.09768331       0.48073912       0.30620199
H       -1.18079579      -1.21699941       0.97219288
H       -1.10939264      -1.29721153       1.07520902
H       -0.79645061      -0.01824060      -0.47375894
H       -1.00706959      -0.30499804      -0.42764652
H        0.05489896       0.15849388       0.17219275
H       -0.89687151      -0.35439837      -0.34675074
