21
Properties=species:S:1:pos:R:3 pbc="F F F"
H        0.00000000       0.00000000       0.00000000
H        0.42330277      -0.73181123      -0.48304045
H       -0.04492575      -1.52642131      -0.17092255
H        0.80404723      -1.16330075       0.36676800
H        1.37903929      -1.14640176       1.15236294
H        0.70913565      -0.68113458      -1.41244483
H       -0.05172366      -0.63587439       0.73556054
H       -0.87169558      -1.43290448       0.51597893
H        0.53430605      -1.47574472      -0.87757087
H        0.85061014      -0.04526019      -2.13612270
H       -1.74327469      -1.00141490       0.18812174
H       -1.00417209      -0.41528797       0.50080007
H        0.37533492      -0.52007943      -1.21632719
H        0.93238348       0.66381973      -2.79837632
H        1.36708784       0.34851122      -1.98617339
H        0.23159426       0.57942653      -2.12768030
H        0.10029233      -0.58961421      -0.62964404
H        1.00093830      -1.38349700       0.34665620
H       -1.19917691      -1.32974374      -0.47858328
H       -0.03496355       0.42794573      -1.20352590
H        1.10421968       0.37336308      -1.91696620
