21
Properties=species:S:1:pos:R:3 pbc="F F F"
H        0.00000000       0.00000000       0.00000000
H       -0.58002573       0.67024595       0.51736289
H       -0.24269536       1.33132863       1.14763188
H        0.34867579       0.38709933       0.44386247
H       -0.13252784       0.60990006       0.74734145
H        0.04649437      -0.40936196      -0.88222563
H        0.08643922      -1.01926208      -1.64017498
H       -0.68245912      -1.60245287      -1.51077306
H       -0.21533188       1.91451943       1.92686272
H        0.02732785      -0.43344122      -0.79955399
H       -0.01206388       1.22902524       1.26592350
H       -0.36568680      -0.68402225      -1.44595504
H        0.35899690       1.61625457       1.27148306
H        0.22626877       1.47024548       1.25162399
H       -0.60201955      -1.40811157      -1.05716431
H       -1.09572148      -1.79159486      -0.05140424
H       -1.09572148      -1.79159486      -0.05140424
H       -1.56300509      -2.62332582      -0.24616170
H       -1.85118937      -1.18169475       0.02174804
H       -2.02442312      -1.50844824      -0.12490460
H       -0.38865554      -2.76684928      -0.29772177
