21
Properties=species:S:1:pos:R:3 pbc="F F F"
H        0.00000000       0.00000000       0.00000000
H        0.65604281      -0.46966103       0.54505712
H       -0.04546368      -0.80201322       1.21643972
H        0.50308877      -0.41898438      -0.41520214
H       -0.92033076      -0.31530851      -0.04040739
H       -1.26332855      -1.24271536      -0.31534886
H       -0.91082770      -2.19838071      -0.18976699
H       -0.92510670      -0.27606165       1.27054214
H       -0.59227788      -1.24271536       0.25220427
H       -0.46486104      -1.34073830       0.15503328
H       -0.09241003      -2.54777670      -0.79988372
H       -0.12426728      -2.58299446      -0.82026064
H       -1.67261934       0.06930524       0.63060790
H        0.37975401      -1.19358647       0.16172159
H        0.53581560       0.39748803      -1.03618979
H       -1.30750680      -0.29296064       0.37525141
H       -0.66141939      -1.15590930       0.94743538
H       -0.39517933      -0.78028047       0.06815985
H        0.09860647       1.08298218      -1.57191992
H       -0.23574296       1.13365877      -0.65884638
H       -0.09409751       0.17319590      -0.58462703
