21
Properties=species:S:1:pos:R:3 pbc="F F F"
H        0.00000000       0.00000000       0.00000000
H        0.05739931      -0.52769721       0.81627315
H        0.27066985       0.83756196      -0.52777982
H        0.04100065       1.01237965       0.16349353
H       -0.28615117       1.45215607       0.96824765
H       -0.27919561       0.58089006       1.03791618
H        0.68726069       0.08895500       0.75702286
H       -0.76190358      -0.00174564       1.14099097
H       -0.70239437       0.62042505       0.68010521
H       -0.57456189       1.08803391       0.78322238
H        0.28132790       0.40426350       1.58398128
H       -0.26536542       0.03827836       0.95194954
H       -0.24083661      -0.43586981      -0.04489148
H       -0.22334185       0.66214454       0.82131481
H       -0.17893925       0.86268210       0.84775496
H       -0.13339415       0.25623283       0.40810627
H        0.89536911       0.55460751       1.39371037
H        0.91188937       0.57757431       1.37046039
H        0.92674470       0.59995234       1.34612513
H        0.25017861       1.14299273       1.64743805
H       -0.25398976       1.07164538       1.25021911
