21
Properties=species:S:1:pos:R:3 pbc="F F F"
H        0.00000000       0.00000000       0.00000000
H        0.02715597      -1.02162731       0.09414954
H        0.58225614      -0.40936196      -0.66442573
H       -0.62974215      -0.65577519      -0.60439247
H        0.22294649      -1.04523635      -1.30833662
H       -0.06353545      -1.11844182      -0.83241326
H        0.59222269       0.60990006      -0.47471583
H        0.24709168      -0.90060329      -1.72913957
H       -0.49258700       0.00530744      -1.30597579
H        1.16500723       1.10887980      -1.08381176
H        1.13379145       0.27131784      -1.67612863
H        0.37663352      -1.10602057      -0.81072843
H        0.41823393       0.17403024      -0.64718443
H        1.89074922       0.61840832      -1.17154574
H        1.24432874      -0.08620924      -0.67176390
H        0.07595983       0.49262726      -0.52918684
H        0.24833980      -1.17586982      -0.91774517
H        0.45697960      -0.93426836      -0.62368506
H        0.28336701       1.05652320       0.57726961
H        0.28336701       1.05652320       0.57726961
H        0.28336701       1.05652320       0.57726961
