21
Properties=species:S:1:pos:R:3 pbc="F F F"
H        0.00000000       0.00000000       0.00000000
H       -0.67230010      -0.60990006       0.35227177
H       -0.55615526       0.38835424       0.14413105
H        0.20625788      -1.13585162       0.28273988
H       -0.06742603      -0.38028651      -0.44442692
H        0.95431972      -1.63089967       0.78139275
H       -0.32470292      -0.82054311      -0.47006959
H        1.42439353      -1.96804810       1.09474075
H        0.55561006      -1.40506852       0.58131552
H        1.70535159      -1.04961753       1.25476778
H        1.35267746      -2.49574518       0.27960062
H       -0.93559480       0.94698918       1.18034101
H        0.64578456      -1.88103056      -0.13962767
H       -0.87197757       0.86909336       1.23908520
H       -1.01500118       0.90835452       1.16825926
H       -0.97172648       0.94698918       1.16638637
H        1.07792318      -0.64025557       0.63282138
H        1.83019614      -1.17400444       0.24369621
H        1.65069628      -2.65541410      -0.68942696
H        0.72886521      -1.37280655       1.34391558
H        0.96961272      -1.08504939      -0.30839729
