21
Properties=species:S:1:pos:R:3 pbc="F F F"
H        0.00000000       0.00000000       0.00000000
H        0.14728610      -1.02954066      -0.28719354
H        0.16578500       0.87668937       0.50720310
H       -0.50480723      -0.25817215      -0.10529017
H       -0.26636285      -0.05071753       0.42665160
H        0.28487763       1.80578709       0.77301371
H       -0.43513945       1.64611816       0.05928755
H       -0.41029552       1.16291952       1.16896760
H       -0.86106175      -0.03473199       1.12979841
H       -1.64421439      -0.47450843       1.50573635
H        0.79307771      -1.73862052      -0.45518109
H        0.59847391      -2.38148808       0.32081798
H        1.61148167      -1.27507246      -0.86586601
H       -1.11636472       0.28057653       2.01493216
H       -0.95317143      -0.72515202       0.86722380
H        1.50564277      -0.33642715      -0.62963718
H       -0.54945785       0.26912874       0.80864441
H        0.17830256      -1.88250840       1.04368460
H        0.74703693      -1.00667310      -0.79878646
H        0.61908227      -0.83147526      -0.48043329
H        0.67084473      -1.00581908       0.83839983
