21
Properties=species:S:1:pos:R:3 pbc="F F F"
H        0.00000000       0.00000000       0.00000000
H       -0.12270200      -0.91159266      -0.45526573
H       -0.43208566       0.46354809       0.80730969
H        0.83107322      -0.89469367      -0.26010397
H       -0.13059196      -0.17232630       1.48023319
H       -0.94408572      -0.05431820       0.95834923
H        0.76814395      -0.51623946       0.63481128
H        0.08752050      -0.06279355      -0.02700469
H        0.43573210      -0.62427938       0.40931597
H        0.34293634      -0.24759591       0.75617480
H       -0.30760676      -0.62144941       0.79278415
H        0.11640265      -1.38029456       0.89307511
H        0.16968217      -1.28417099       0.91242278
H        0.41835105      -1.08701015       0.87566066
H        0.51421404      -0.98692280       0.84224677
H        0.60365975      -0.98692280       0.79437399
H        1.04594064      -0.99402773       0.44069052
H        1.01955056      -1.04234302       0.39733866
H        0.47861648      -0.99994415       0.52656722
H        0.60508716      -1.04234302      -0.24871165
H        0.09501363      -1.19281459      -0.31151950
