21
Properties=species:S:1:pos:R:3 pbc="F F F"
H        0.00000000       0.00000000       0.00000000
H        0.19410905      -0.89379078       0.33394706
H       -0.70427954      -0.36585209      -0.65074301
H       -0.62704074      -0.89180362      -1.52865696
H        0.01702381       0.08439321      -0.96987057
H        0.89099813      -1.47698164      -0.01576018
H        1.63234639      -1.45916915       0.69375324
H        0.73939776      -1.08071494       0.78021783
H        1.32171929      -1.67700768      -0.20297307
H        0.25451344      -0.94521952      -2.05146933
H       -1.33243370      -0.16925573      -1.71214843
H        1.00645387      -1.12340426       0.91763997
H       -0.95172375       0.49182689      -1.10709417
H        0.98605376      -0.00456179      -1.29604840
H       -0.52656353      -0.31487119      -0.81774831
H        0.27047896      -1.29231000      -2.96104860
H        0.57073998      -0.19890314      -1.09668469
H        0.67951429      -1.58109391      -2.65404606
H       -0.57684863       0.03680770      -2.19688225
H       -0.56261182      -0.90507573      -3.02698207
H       -0.75670409       1.47578084      -1.83068252
