21
Properties=species:S:1:pos:R:3 pbc="F F F"
H        0.00000000       0.00000000       0.00000000
H        0.44047090       0.80291802      -0.09821343
H        0.00000000       0.63587439       0.73737687
H        0.35039830      -0.84879911      -0.32376233
H        0.96525073       0.64324909      -0.96564394
H        0.96045631      -0.01781246      -0.36128971
H        0.33705270       1.97709107       0.01570249
H       -0.56060469      -0.81647241       0.26910794
H       -0.38744056      -0.55228055       1.24560213
H        0.92495388      -0.75984412       0.52198994
H        1.64235699      -0.70330662      -0.24652919
H        0.17662334       2.73075175      -0.57954443
H       -0.05437597      -0.33599913       0.76116848
H       -0.14519690      -0.68304628       0.20236409
H        1.18106341       0.32949206       0.04386514
H        0.50216550       2.37600231       0.94679409
H        1.22161806      -0.11140662       1.19874263
H       -0.30786234       1.81607962       0.94259578
H        2.61495757      -0.72020561      -0.28923145
H       -0.99980122      -1.19818568       0.54682332
H        0.61862487       0.25863534      -0.01904476
