20
Properties=species:S:1:pos:R:3 pbc="F F F"
H        0.00000000       0.00000000       0.00000000
H        0.63848275      -0.52769721      -0.51179713
H       -0.01779242       0.15966894      -1.01366317
H        0.63246113      -0.22961354      -0.77498025
H        0.80346656      -0.36076623      -0.54589367
H       -0.76995188       0.55863494       0.79049313
H       -1.71029663       0.43424803       0.39857024
H       -0.83897930       0.31623992       0.81682980
H       -0.73893088       0.49040323       0.86485612
H       -0.76995188       0.55863494       0.79049313
H       -2.15887237       1.14295435       0.17346971
H       -1.73059702       1.33729577       0.34320986
H       -2.16649556       1.14295435       0.18935077
H       -2.13427877       0.75744516       0.26796436
H       -1.96729088       0.83792269       0.34113276
H       -0.76995188       0.55863494       0.79049313
H       -2.00178885       1.19128501       0.08859885
H       -2.13279581       1.04563475      -0.05071330
H       -1.78085983       1.13512635       0.30562922
H       -1.77792275       1.14152861       0.39321810
