21
Properties=species:S:1:pos:R:3 pbc="F F F"
H        0.00000000       0.00000000       0.00000000
H        0.12529835      -0.08895500      -1.01474690
H        0.33758998       0.76868743      -0.49253458
H       -0.05344114       0.19419162      -1.92904496
H        0.14148358       0.94160014      -1.25324261
H        0.15454625       1.72302485      -0.55414754
H       -0.60851783      -0.60990006      -0.45363969
H        0.29262385       0.98859066      -1.37905121
H       -0.63191730       1.30365670       0.05390894
H       -0.72199214       1.24228573       0.17410284
H        0.72903955       1.97873712      -0.74752331
H        0.70073444       2.04036331      -0.73799574
H       -0.77845693       0.98221493      -0.22175622
H       -0.74093145       0.88327128      -0.40344292
H        0.63735664       2.09855103      -0.79642761
H        0.21340925       1.94657183       0.28294086
H        0.21340925       1.94657183       0.28294086
H        0.21340925       1.94657183       0.28294086
H        0.21391802       1.91731322       0.29017591
H        0.37291688       2.49437261      -0.88805181
H        0.33661053       2.49437261      -0.90915513
