21
Properties=species:S:1:pos:R:3 pbc="F F F"
H        0.00000000       0.00000000       0.00000000
H       -0.96783787       0.05067664       0.09371616
H       -0.18921454      -0.95433736       0.03871714
H       -0.91668344      -1.62458324      -0.23493090
H       -0.98071396      -0.26419187      -0.14739980
H       -1.50706100      -0.78702128      -0.17776439
H       -1.30206108       0.10884804      -0.23884703
H       -0.20800346      -2.28566599      -0.14110413
H       -1.07177258      -0.01872592      -0.12280145
H       -0.16638502      -1.28741169       0.09358735
H        0.61452395      -2.16765785       0.36642286
H        0.12456498      -1.35399699       0.58079928
H        0.73203319      -1.80180573      -0.58524287
H       -0.86732280      -1.02493477       1.01478946
H       -0.75528288      -0.91330552       0.10741758
H       -1.10661662      -0.47800249       0.91505504
H       -0.65163034      -0.34723675      -0.05448866
H       -0.64832050      -0.45927656      -0.06154168
H       -0.82588279      -0.45927656      -0.12656152
H       -0.95262533      -0.02438521      -0.05171555
H       -0.51245785      -0.10542420      -0.35105550
