21
Properties=species:S:1:pos:R:3 pbc="F F F"
H        0.00000000       0.00000000       0.00000000
H        0.05110265      -0.33235219      -0.96966726
H        0.64348799      -0.85830379      -0.31715029
H        0.97180605      -0.10464311       0.20463866
H        0.02795917      -0.12649256      -0.50055575
H        0.92641324       0.45157820      -0.65668666
H        1.22842562      -1.25721502       0.42584485
H        0.37416977      -0.12535423      -0.19786870
H        1.46515405      -2.42387009       0.09020546
H        0.52219683      -1.97025275       0.35324615
H        1.12854838      -0.77088594       0.36661184
H        1.27142751      -2.39257097      -0.06292528
H        1.52126813      -2.28400970       0.09336114
H        0.64090919      -0.58854228      -0.62904119
H        0.80429250       0.42144728       0.42118257
H        1.29514766      -0.35191339      -0.32936972
H        0.53067315      -0.01128429      -0.11263525
H        1.50931001      -0.47216237       0.88683528
H        0.55286610      -0.60245949       0.26219434
H        0.74578083       1.44983244      -0.81219912
H        0.75713426       1.44983244      -0.82448661
