12
Properties=species:S:1:pos:R:3 pbc="F F F"
H        0.00000000       0.00000000       0.00000000
H       -0.01035373      -0.77460212      -0.58986890
H       -0.34537753      -0.30494109      -1.37424028
H       -0.16630441       0.02000803      -0.04918879
H       -0.45655718      -1.22337174      -1.07062018
H       -1.05511296      -0.68339527      -0.82550633
H       -0.16251121      -0.29285124      -0.36589146
H       -0.05173853      -0.82537627      -0.47588032
H       -0.13093996      -0.26402709      -0.45922500
H       -0.08877516      -0.26402709      -0.59216332
H       -0.36390316      -0.52443206      -0.78299338
H       -0.37172759      -0.50049317      -0.75933385
