21
Properties=species:S:1:pos:R:3 pbc="F F F"
H        0.00000000       0.00000000       0.00000000
H        0.36329272       0.89468008       0.34769225
H        0.75623119       0.43148959       0.54337364
H        0.21588397      -0.38498282       0.85114241
H        0.59052742       0.64932811       1.47779834
H       -0.18794736      -0.49504808       0.87916267
H        0.03973430       0.17966709       2.12903285
H        0.05376517       0.73544586       1.32967448
H        0.71898305       0.65350282       0.60326588
H       -0.84316647      -0.05077416       1.34995615
H       -1.08363318       0.89132953       1.67849874
H       -0.74400729      -0.23723094       0.23598108
H       -1.38310134       1.01571643       0.70475823
H       -1.94160366       1.41462755       1.46782374
H       -1.28877449       0.80472749       1.08065844
H       -0.34281072       0.41649079       1.46340299
H       -1.59275448      -0.67812961      -0.54824769
H       -1.53641200      -0.94322026      -0.39919773
H       -0.16795409       1.16362107       2.84908724
H       -1.59275448      -0.67812961      -0.54824769
H       -1.61975384      -0.67812961      -0.51797831
