20
Properties=species:S:1:pos:R:3 pbc="F F F"
H        0.00000000       0.00000000       0.00000000
H       -0.47398776      -0.23709527       0.75329894
H       -1.00500929       0.62054718       0.94248044
H       -0.06588127       0.92909771      -0.28372172
H       -0.71961570       1.35309815       0.20353061
H       -1.50373387       1.63624477      -0.29950786
H       -2.32303667       1.11029315       0.02520990
H       -0.26168573      -0.55577880      -0.75544119
H       -1.96976840       0.46405476       0.81369245
H       -0.46895158       0.94691014      -1.22740650
H       -1.31533277       1.33779299      -1.26322746
H       -0.98650104      -1.08347607      -0.37565258
H       -1.76010060      -0.83283246      -0.91117334
H       -0.58310497      -0.02808160      -1.50796103
H       -2.04280162       0.66754705      -1.53687549
H       -1.55763543      -0.16418397      -1.68143773
H       -2.39834738      -0.42347050      -0.30033398
H       -1.15966511      -0.81928420       0.60084152
H       -1.98029351      -0.33451551       0.63274795
H       -2.52113533       0.54460496      -0.61825997
