20
Properties=species:S:1:pos:R:3 pbc="F F F"
H        0.00000000       0.00000000       0.00000000
H        0.68725604      -0.43977645       0.53135377
H        1.32062125       0.29203478       0.63794601
H        1.02790356       1.10569561       0.19035983
H        2.16881990       0.07419628       0.21230975
H        2.04611802      -0.83739638      -0.24295598
H        2.33051205       0.73527890      -0.48402807
H        1.18386948      -1.13659322      -0.03534317
H        2.09643006      -0.65262544      -1.19762301
H        0.76413095      -1.18453062      -0.85379261
H       -0.01467364      -0.49897972      -0.83598137
H        1.19498014      -0.91681731      -1.61104095
H        0.19616951       0.93864530      -0.16888885
H        1.70729613       1.36988747      -0.53210264
H        0.28545412       1.06303215      -1.18371892
H        0.09870432       0.13562524      -1.58166969
H        1.26039100       1.32722402      -1.36544549
H        2.31473422       0.24023083      -1.38291752
H        0.83918762      -0.12220716      -2.04700804
H        1.46842194       0.60960406      -1.91825390
