21
Properties=species:S:1:pos:R:3 pbc="F F F"
H        0.00000000       0.00000000       0.00000000
H       -0.92830116      -0.43148959      -0.07346868
H        0.57267553      -0.58319080      -0.52914286
H        0.11554748      -1.29227066      -1.01525044
H       -0.01793637       0.96807545      -0.34034115
H        0.26684427      -1.14078987      -1.96510506
H        0.85025138      -0.36618775      -2.05279016
H       -1.50143266       0.22959304      -0.50072855
H        0.62369394       0.98497444      -1.07252002
H       -1.76514840      -0.14886117      -1.35821748
H       -0.93394268       1.08608353      -0.64867115
H        1.12747133      -0.13657421      -1.09167075
H        0.37634528       0.34289217      -2.52255559
H       -0.61954182      -0.87659800      -2.40990400
H       -0.83294284      -1.14078987      -0.85562408
H        0.28540713       1.13729119      -1.87913942
H       -1.40006781       0.49400640      -2.07008910
H        0.81112432       0.72107416      -0.97896910
H       -1.29799771      -0.82592136      -1.71334779
H       -0.89150894       1.21655428      -1.54796243
H       -0.57991809       0.04183263      -2.73080277
