20
Properties=species:S:1:pos:R:3 pbc="F F F"
H        0.00000000       0.00000000       0.00000000
H        0.59380746      -0.49897972      -0.58861941
H        0.36755341      -0.26936617      -1.56299639
H       -0.63849199       0.49504808      -0.63291329
H        0.04290789      -1.10692811      -2.05940247
H       -0.40965170       0.40087977      -1.56981671
H        0.08796041      -1.83873940      -1.41871262
H        0.41767770      -1.47288728      -0.51828909
H       -0.92869771      -0.94725919      -2.34890604
H       -0.87465239      -2.17109156      -1.29126608
H       -0.32099193      -1.56184232       0.18866074
H       -1.13959265      -1.98632061      -0.37271976
H       -1.42234421      -1.61531281      -1.87367868
H       -1.60110474       0.16269588      -0.50546676
H       -1.22999322      -0.06741154      -2.06054878
H       -1.55361700      -0.60867262       0.16985500
H       -1.91062379      -0.23621529      -1.39899445
H       -0.56638336      -0.66208851       0.44524655
H       -1.87852407      -1.46631503      -0.29080635
H       -2.07044363      -1.23670149      -1.27252340
