21
Properties=species:S:1:pos:R:3 pbc="F F F"
H        0.00000000       0.00000000       0.00000000
H       -0.13959605      -0.55577880       0.78719991
H        0.70808405      -0.68016571       1.35225761
H        0.58444917      -0.27080375       2.22701359
H        1.35856080      -0.15442902       0.96648735
H       -0.57798392       0.77460212       0.11826725
H        1.67801881       0.61693949       1.56336355
H       -0.87714702      -0.18992671       1.39997602
H        1.19767499       0.54566866       2.33021641
H        0.91947991       0.31530851       0.05655277
H        0.64275706       1.34027886       2.42360640
H        0.03563333       1.52826285       0.17768404
H       -1.12121367       0.72166598       0.99654806
H        1.38858163      -0.10405967       0.93302369
H        0.71241301      -0.35687536       0.56591243
H        2.41780376       1.85329652       1.42546892
H        2.41780376       1.85329652       1.42546892
H        2.41780376       1.85329652       1.42546892
H        2.41780376       1.85329652       1.42546892
H        2.41780376       1.85329652       1.42546892
H        2.41780376       1.85329652       1.42546892
