21
Properties=species:S:1:pos:R:3 pbc="F F F"
H        0.00000000       0.00000000       0.00000000
H       -0.53245163       0.67024595      -0.56620628
H       -1.46303320       0.33789375      -0.84348613
H       -0.08819264       0.65334696      -1.43246794
H       -1.57907999      -0.51090539      -0.38073981
H       -1.64173174      -1.17198801      -1.09285319
H       -0.95513445      -1.89453590      -0.84824622
H       -0.17841017      -1.84112000      -1.51695395
H       -0.61865270      -0.73181123       0.17257500
H       -0.67065173       0.33803844      -2.14617872
H       -0.27678603      -1.56937313      -0.31213209
H       -1.49863183      -0.82489753      -1.99124706
H       -1.51928401      -0.53705263      -0.27937236
H       -1.14291406      -0.76331329      -1.37926674
H       -1.14420247      -0.73878354      -1.38148332
H       -2.37904477      -0.72225714      -1.20594931
H       -2.37904477      -0.72225714      -1.20594931
H       -2.37904477      -0.72225714      -1.20594931
H       -2.37904477      -0.72225714      -1.20594931
H       -2.37904477      -0.72225714      -1.20594931
H       -0.10268950      -1.99978638      -0.97636735
