21
Properties=species:S:1:pos:R:3 pbc="F F F"
H        0.00000000       0.00000000       0.00000000
H        0.54069358       0.79439902       0.36042264
H       -0.06962043       1.56576753       0.65339255
H        0.13023546       1.75053847       1.58826065
H        1.11419463       0.46204683       1.14398026
H       -1.03495622       1.26731575       0.47345582
H        0.87765384      -0.46705088       1.31394148
H        0.83282447       0.98974407       1.91237307
H        0.14350545      -0.77460212       0.57224005
H       -0.74536252       1.55577993       2.08698010
H       -0.54581779       0.82396871       2.69746780
H       -1.04460883       0.09123701       2.44716859
H       -1.55795407       0.35542887       1.59863853
H       -1.39007509       1.28452659       1.36061549
H        0.39517799      -0.55600590       2.21540022
H       -1.00384235       0.36065882       0.11980900
H        0.39467496       0.40655327       2.55733395
H       -0.47055995      -0.64057422       2.15910387
H       -0.68111742      -0.99244058       1.04192543
H       -1.41908729      -0.22253197       0.77974927
H       -0.66507316      -0.80024314       1.16411924
