21
Properties=species:S:1:pos:R:3 pbc="F F F"
H        0.00000000       0.00000000       0.00000000
H        0.21426670       0.05341591       1.00227761
H       -0.60280317       0.35186774       1.54693079
H       -0.33471626       1.20066690       1.94155777
H       -0.95301193       0.18477097      -0.07542437
H        0.62029994       1.39542544       1.62009704
H        0.89977485       0.73891008       1.09303653
H       -1.06097674       0.97938108      -0.62769169
H       -1.55661798       1.61525548      -0.08173901
H       -0.12586147       1.37829232      -0.76823801
H       -1.74804401       1.15170741       0.81369555
H       -1.34627807       0.33625177       0.80233198
H       -0.95763671       2.43172789       0.08534846
H       -1.25280499       1.67765903       1.54269290
H       -0.77910781       2.52068281       1.09209490
H       -0.55641556       1.14996183       1.97238851
H       -0.11016266       2.24313664      -0.32118252
H        0.57356513       0.76357776      -0.33666834
H        1.06738973       1.26255751       0.33802971
H        0.74685097       2.18098807       0.38046789
H        0.00497669       2.33816957       1.22405243
