21
Properties=species:S:1:pos:R:3 pbc="F F F"
H        0.00000000       0.00000000       0.00000000
H       -0.02074104      -0.97334045      -0.01546210
H        0.79766285      -1.43688858      -0.42614701
H       -0.68423754       0.28314662      -0.63222450
H       -1.15722895      -0.49145550      -0.98483157
H        0.88292891       0.28314662      -0.29719594
H       -0.96058500      -0.54487139      -1.99071515
H        0.77275598       0.77819467      -1.18944764
H        0.55188286      -1.93586826      -1.22531688
H       -0.32694310       0.22649711      -2.22906876
H        1.43041849      -0.55441535      -0.52538204
H       -0.23481464       0.83161056      -1.37725687
H       -0.77230841      -1.23753238      -0.66251153
H        1.03379059      -1.43688858      -1.90857756
H        0.37545121      -0.99711215      -2.47536397
H        1.25512505       0.25224310      -1.92702413
H        0.56644118      -0.04277480      -2.50406957
H       -0.57803786      -1.22672570      -2.17294025
H        1.64149439      -0.56141770      -1.55724621
H        1.19440198      -1.33601975      -1.94216299
H       -1.73764563      -1.72792184      -2.43150258
