21
Properties=species:S:1:pos:R:3 pbc="F F F"
H        0.00000000       0.00000000       0.00000000
H       -0.12270200      -0.91159266      -0.45526573
H       -0.80215883       0.61471456      -0.17886049
H        0.56787366      -0.96226931      -1.13980794
H       -1.35321462       0.11573485      -0.80768293
H       -2.16679358      -0.06903613      -0.30567724
H       -0.97518778      -0.79585779      -1.08949566
H       -0.48207450       1.44644558      -0.57107276
H        0.86782366       0.46354809      -0.29211149
H        1.28811324      -0.09267321      -1.04530370
H        1.27314448       0.37698781      -1.89809632
H        0.62427586      -0.03237414      -2.49764061
H        0.93437052       1.31909156      -1.67227197
H        0.59161294       1.34023750      -0.74867177
H       -2.07249641       0.30941808       0.58647823
H        0.21712866      -0.94537032      -2.04796720
H        0.10004079       1.40348482      -2.16707754
H       -1.19315934       0.71878004       0.67162478
H        0.65387750      -0.88707221      -1.18672168
H       -0.25278002       0.04421705      -1.59823728
H       -0.25278002       0.04421705      -1.59823728
