21
Properties=species:S:1:pos:R:3 pbc="F F F"
H        0.00000000       0.00000000       0.00000000
H        0.88292891      -0.28314662      -0.29719594
H        1.10464609      -0.92601418       0.47149560
H       -0.32715181      -0.43977645       0.80475414
H        0.46046820      -0.93875617       1.08535147
H        1.88419008      -0.54755998       0.91550523
H        2.14623618       0.28417104       0.48235831
H        2.01735568       1.03783178       1.08522344
H        1.53193665       0.45202816      -0.38861087
H        1.34671366       1.62102258       0.68749404
H        0.60060430       1.70541584       1.30738068
H        1.67476010       0.69074130       1.92796731
H        0.79018551      -0.57290411       1.98577499
H        1.58491588      -0.27468985       1.83890796
H        0.97644377       1.23575485       2.07303333
H       -0.20122683       1.32696164       0.90501237
H       -0.43605492       0.44644773       1.48266125
H        1.02329826       1.32871747      -0.22728312
H        0.27993676       0.42863527       2.21775484
H        0.09303866       1.01761651       0.09552084
H        0.28639585       0.24075669       2.16525483
