21
Properties=species:S:1:pos:R:3 pbc="F F F"
H        0.00000000       0.00000000       0.00000000
H        0.19410905      -0.89379078       0.33394706
H       -1.01378036       0.15966894      -0.00889638
H       -1.34966266       0.17748140      -0.97853011
H       -0.65033102      -1.33356726       0.53785503
H        0.68892193      -1.42148805      -0.31778663
H        0.85801077      -0.89553648      -1.18271899
H        0.41449890      -0.04673737      -1.00694001
H        0.35731345      -1.33531296      -1.89262009
H       -0.72301823      -2.17112923      -0.05081320
H       -1.39520323      -0.66332132       0.31590986
H       -1.94031990      -0.61691761      -1.24941409
H       -1.46868396      -1.14461482      -1.91811132
H       -0.06336838      -2.19295549      -1.51738644
H       -0.27836195       0.06489190      -1.60344696
H       -0.40091306      -0.69244540      -2.14784098
H       -1.03245473      -2.10856223      -1.55993450
H        0.13964510      -2.22454524      -0.60424131
H       -2.05825162      -1.20273852      -0.41501015
H       -1.04186594       0.14472333      -1.09450054
H       -0.64227021      -0.75738055      -2.04232001
