21
Properties=species:S:1:pos:R:3 pbc="F F F"
H        0.00000000       0.00000000       0.00000000
H        0.36925858       0.05341591      -0.95609558
H       -0.46352738      -0.91159266      -0.08640061
H       -0.74847561       0.60990006       0.12596488
H       -1.47346449      -0.78720576       0.04731147
H       -1.58095241       0.17325711       0.16571029
H       -1.91657126      -1.11955798      -0.81670374
H       -0.32042745      -1.25868320      -0.98479450
H       -2.32987404      -0.32494783      -1.19858897
H       -2.11790061       0.45640373      -0.59558827
H       -0.76326483       1.19572091      -0.71660203
H        0.24775454      -0.61581564      -1.54801238
H       -1.58275926       1.15322042      -1.12605417
H       -0.09354731       0.89097786      -1.32707334
H       -1.18427026      -1.37669134      -1.41828096
H       -0.32118317      -0.36517206      -2.29737782
H       -0.46764767       0.64720762      -2.21395516
H       -1.20052028      -0.77453399      -2.21223116
H       -1.91468334      -0.18165520      -2.00817013
H       -1.46659756       0.84196621      -2.08169770
H       -1.47713876       0.74575174      -1.96580255
