20
Properties=species:S:1:pos:R:3 pbc="F F F"
H        0.00000000       0.00000000       0.00000000
H        0.36329272       0.89468008       0.34769225
H        0.26671770      -0.05341591      -0.98961222
H        0.89559984      -0.84781492      -1.15320122
H        0.69281667       0.77831513      -1.26296926
H        0.52771175      -0.79439902       0.37917590
H        1.20660639      -0.44730854       0.98472613
H        1.04346824      -1.26406002      -0.30014324
H        1.73528230      -0.46936071      -1.46906006
H        1.59223425       0.56047666      -1.56571531
H        2.49186373      -0.62902963      -0.79421610
H        1.07976568       0.63048822       1.03339839
H        2.04587436      -1.14946485       0.03907132
H        2.13445044      -0.56364399       0.87709999
H        2.60173416       0.26808703       0.68234265
H        2.78886557       0.26565045      -0.38843116
H        1.91705513       1.03985023       0.75156480
H        0.78347647       1.33453643      -0.40522653
H        2.23048115       0.96983862      -0.95487601
H        1.74137354       1.50339830      -0.14709139
