21
Properties=species:S:1:pos:R:3 pbc="F F F"
H        0.00000000       0.00000000       0.00000000
H        0.15274149      -0.33235219      -0.95892441
H        0.25764996       0.93864530       0.02494834
H        0.43229598       0.47857371      -1.61342871
H       -0.92127651      -0.11800810       0.29220656
H       -0.74007350      -0.61549878      -1.22495127
H       -1.30898392       0.76183957       0.44586828
H       -0.58409250       1.39771390       0.31074977
H        0.47390202       1.31613564      -1.02175093
H       -1.38266087      -0.43072781      -0.51713634
H        0.47975600       1.23709714      -0.93156576
H        1.59988117       0.66280711      -1.54161620
H        1.59988117       0.66280711      -1.54161620
H        1.59988117       0.66280711      -1.54161620
H        1.59988117       0.66280711      -1.54161620
H        1.59988117       0.66280711      -1.54161620
H        1.59988117       0.66280711      -1.54161620
H        1.59988117       0.66280711      -1.54161620
H        1.59988117       0.66280711      -1.54161620
H        1.59988117       0.66280711      -1.54161620
H        1.59988117       0.66280711      -1.54161620
