21
Properties=species:S:1:pos:R:3 pbc="F F F"
H        0.00000000       0.00000000       0.00000000
H        0.05739931      -0.52769721       0.81627315
H        0.33734825       0.95566529       0.16193771
H        0.26622325       0.16911954       1.54026413
H        0.31733114       1.04896712       1.12635958
H       -0.52306813       0.15130708       2.19602752
H       -0.94376296      -0.08895500      -0.39334759
H       -0.48925832       1.51188660      -0.08436139
H       -1.15035260      -0.50977552       1.85317922
H       -0.83409399       1.97543466       0.76389295
H       -1.23630059       0.89717203      -0.42696577
H       -0.76387995      -0.85686600       1.02963328
H       -0.41064525       1.66368175       1.50780463
H       -2.01194644      -0.01472744       1.59645510
H       -1.51707137      -0.55861604       0.23815605
H       -2.02595854       0.94784868       0.14042580
H       -0.95978099      -0.82280791       1.05849373
H       -1.03538799      -0.63197243      -0.12093088
H       -3.17414331       0.36025050       2.01049876
H       -3.17414331       0.36025050       2.01049876
H       -3.17030430       0.31720594       2.05555201
