21
Properties=species:S:1:pos:R:3 pbc="F F F"
H        0.00000000       0.00000000       0.00000000
H       -0.90169489       0.25064358      -0.26867270
H        0.19018230       0.34709048       0.88961780
H       -1.37014103      -0.66094911      -0.32234627
H        0.48849651      -0.42427802       1.49733746
H       -0.82944745      -1.45534813       0.03807637
H       -0.65901518      -2.15216494      -0.69590127
H       -1.18385077      -1.78631282      -1.49841213
H        0.47650757      -1.25941551       0.81430823
H        0.29118812      -2.16906404      -0.90777159
H        0.74075454      -1.52619648      -0.24600482
H       -0.14247975      -0.59906137       2.14514732
H       -0.82947505       0.08643281       2.06643295
H        0.08833706      -1.02162731       0.04240455
H        1.14614475      -0.77878797      -0.82077718
H       -1.72190511      -0.34505677       1.80052090
H       -1.59971082      -0.92146844      -1.33359253
H       -0.58936179       0.72554469       1.33362734
H       -1.20115757      -0.23597425      -1.89867115
H        0.71605551       0.07001114      -0.61432076
H        0.98763758      -0.97354656      -1.81589949
