21
Properties=species:S:1:pos:R:3 pbc="F F F"
H        0.00000000       0.00000000       0.00000000
H       -0.02481474      -0.91159266      -0.47085762
H        0.80713278       0.08439321       0.53802919
H       -0.81773311      -1.38125372      -0.15659693
H        0.75275803      -1.46781397      -0.09759843
H        0.45683360       0.20878011       1.49465990
H        1.30842853      -0.81028688       0.49835503
H       -0.56710470       0.26219600       1.44970357
H       -0.51110017      -2.17565274       0.41631696
H        0.40633026      -2.22147465       0.41234690
H       -1.34538770      -0.67663616       0.46727958
H       -0.96694911      -0.50917250       1.99599934
H       -0.78273690       0.18100625       0.50188553
H        0.72284138      -2.09708786       1.38068175
H       -0.79343295      -2.05126595       1.39516318
H       -1.47652149      -1.09499335       1.32482576
H       -0.27225101      -1.06495130       2.39168286
H        0.65032649      -0.58583003       2.02306890
H       -1.03775954      -2.02240038       1.35181189
H        0.58274537      -0.65558934       2.16927552
H       -0.70028400      -1.12653553       1.82790732
