21
Properties=species:S:1:pos:R:3 pbc="F F F"
H        0.00000000       0.00000000       0.00000000
H        0.07742673      -0.40936196      -0.88005048
H        0.42668670       0.99041677      -0.03376935
H       -0.95310330       0.11800810       0.16040275
H        0.74304307       1.10842490      -0.94703478
H        0.24878374       1.86208558      -1.31549668
H        0.54741466       0.26088399      -1.49908638
H       -0.82281637      -0.56084275      -1.21869004
H       -1.17763317       1.11626244       0.24039364
H       -0.97620630      -0.00506395      -2.00331879
H       -1.44945192      -0.24784398      -0.66003263
H       -1.69298220       0.63081044      -1.83023798
H       -0.18427235       0.52263325      -2.20932174
H       -0.33695260       2.12627745      -0.51522207
H       -1.30744791       1.52460122      -1.80652559
H       -1.40684235       1.92351246      -0.86614561
H       -0.31311578       1.40021431      -2.02823544
H       -1.22176957       2.01464820      -0.74538642
H       -0.35080969       1.61524212       0.11612339
H       -1.99825358       0.49956453      -1.09994316
H       -1.80441940       1.35720694      -0.57060224
