21
Properties=species:S:1:pos:R:3 pbc="F F F"
H        0.00000000       0.00000000       0.00000000
H       -0.81573808      -0.52769721      -0.06456009
H       -0.09677097       0.68549418       0.68468529
H       -1.55243397      -0.09620762       0.50501847
H       -1.18728042       0.69819140       1.04252839
H       -0.21473652       0.71600384       0.71516782
H       -2.55986881      -0.22059453       0.35360259
H       -2.19668365      -0.60520828      -0.58676761
H       -2.64608479      -0.02201748      -1.22393966
H       -2.95070434       0.78407931       0.30882147
H       -1.19518328      -0.72959518      -0.77344555
H       -0.84684378      -0.06851256      -1.39769745
H       -1.54837894       0.48726624      -1.78112817
H       -2.38177395       0.23662266      -1.34444594
H       -3.17862463       0.97883791      -0.67273104
H       -2.97588801       0.18422776      -1.19766283
H       -3.24222946       1.04827118      -0.63909185
H       -2.10075331       1.55744004       0.02272594
H       -2.10075331       1.55744004       0.02272594
H       -2.10075331       1.55744004       0.02272594
H       -2.10075331       1.55744004       0.02272594
