20
Properties=species:S:1:pos:R:3 pbc="F F F"
H        0.00000000       0.00000000       0.00000000
H        0.05110265      -0.33235219      -0.96966726
H        0.67273659      -1.14882457      -0.95329815
H        1.49500060      -0.96405363      -1.44094813
H        0.97156298      -1.30030537      -0.03906775
H        0.56198418      -0.57775748       0.56383651
H        0.38446462       0.89379078       0.03722785
H        2.24287534      -0.98003918      -0.90357888
H        1.98996007      -1.17591846      -0.01225097
H        2.23615479      -0.31757563       0.59335876
H        1.40763330      -0.07026285      -1.81720066
H        1.30841923       0.00806338       0.95495343
H        2.63470793       0.36791855       0.02828008
H        2.62876630      -0.08624840      -0.92052150
H        0.56191540       0.27682763      -1.48201370
H        2.08069992       0.55661917      -1.50333238
H        1.19628346       0.87597835       0.66488767
H        0.72867310       1.13517940      -0.95644176
H        1.66528511       1.30402768      -0.93576306
H        2.04477072       1.14252067       0.02310312
