20
Properties=species:S:1:pos:R:3 pbc="F F F"
H        0.00000000       0.00000000       0.00000000
H        0.65604281      -0.46966103       0.54505712
H        0.19699121      -1.13990700       1.17224598
H        1.38242960      -0.87902296       0.04221922
H       -0.89125240      -0.34709048       0.18236837
H       -0.74421233      -1.09449899       0.87017918
H       -1.17972064      -0.87304205      -0.65038908
H        0.57501805      -2.05149961       0.89043331
H       -0.94481295      -2.02190590       0.47902745
H        1.31963944      -1.89183068       0.20241529
H       -1.19632840      -1.90389776      -0.45417935
H       -0.12324017      -2.63662052       0.50066137
H       -0.53082097      -2.37355876      -0.98763901
H       -0.51760685      -0.75503397      -1.35447729
H        0.17477858      -2.79628944      -0.46836621
H       -0.07507995      -1.68806458      -1.50769544
H        0.19343352      -0.22733676      -0.94948566
H        0.96722227      -0.72650975      -0.92910999
H        0.76400280      -1.60635734      -1.29329515
H        0.93789077      -2.26743984      -0.59990227
