20
Properties=species:S:1:pos:R:3 pbc="F F F"
H        0.00000000       0.00000000       0.00000000
H        0.13252793       0.60990006       0.74734145
H       -0.49712980       0.55622131      -0.70484304
H        0.11591887       0.71589023      -1.51230884
H        0.45661423       1.68396568      -1.50333750
H        0.93625176      -0.22961354      -0.35218477
H        0.96647829       0.15966892      -1.36916387
H        1.68131495       0.82075155      -1.37543702
H       -0.61895651       1.48362827      -0.28247055
H       -0.22234121       1.39923501       0.60276115
H        0.02799335       2.15362668      -0.76593429
H        0.75262952       2.48597884      -0.11958426
H        1.42056704       1.73464227      -1.37571347
H        1.66359210       0.16929764       0.25210816
H        2.10037923       0.76733565      -0.44009972
H        0.59094810       2.10385251       0.68151224
H        1.65901804       2.18752694      -0.49735445
H        2.07337832       1.55165255       0.11258835
H        1.36809349       1.54807377       0.86917067
H        1.14323926       0.66331595       0.91743916
