21
Properties=species:S:1:pos:R:3 pbc="F F F"
H        0.00000000       0.00000000       0.00000000
H       -0.06381270       0.34709048       0.90747839
H        0.79802561       0.16231951       1.32118773
H        1.21926153       0.99405050       1.60198069
H        1.38929462      -0.21613470       0.64647722
H        2.10081577       1.04746640       1.07916820
H        2.13676786       0.21232891       0.39698046
H        2.08508897       0.51078069      -0.58362126
H        1.93183517       1.47124362      -0.62928540
H        0.89318413      -0.49504808      -0.10233900
H        2.02526736       1.80112708       0.46732759
H        0.64521265       1.72586179       1.31391621
H        1.10600877       2.28164053       0.66058797
H        2.04250073       1.50267529      -0.51448369
H        2.84304833       0.93291771      -1.38963127
H        2.84304833       0.93291771      -1.38963127
H        2.84304833       0.93291771      -1.38963127
H        2.84304833       0.93291771      -1.38963127
H        2.84304833       0.93291771      -1.38963127
H        2.84304833       0.93291771      -1.38963127
H        2.84304833       0.93291771      -1.38963127
