20
Properties=species:S:1:pos:R:3 pbc="F F F"
H        0.00000000       0.00000000       0.00000000
H        0.45279220       0.75366068      -0.41837266
H        1.17158663       0.43835217      -0.99454629
H        0.16998775      -0.01689900       0.95858204
H        0.73825204       0.75770313       1.11710095
H        0.85455650       1.30943942       0.27282652
H        1.81728101       1.29254043       0.12813057
H        2.30493140       0.82899237       0.90314287
H        2.75608492       0.03438222       0.56681550
H        1.60431647       0.47455651       1.46035194
H        1.18602407      -0.53352135      -0.93697590
H        2.08628559       0.77070439      -0.66867578
H        2.31344414      -0.80317974       0.96163565
H        1.81226754      -1.26672781       0.19530088
H        1.91024137      -0.71094900      -0.59815484
H        0.70732129      -0.87454140       1.12901127
H        0.41403177      -0.85764241      -0.38255867
H        1.62723148      -0.49878395       1.47235894
H        2.60294628       0.01748323      -0.39460212
H        0.87641013      -1.40049291       0.26407897
