21
Properties=species:S:1:pos:R:3 pbc="F F F"
H        0.00000000       0.00000000       0.00000000
H       -0.78841746      -0.36585209      -0.54577839
H       -0.24384277       0.93864530       0.08687132
H        0.89719027      -0.08895500      -0.49036774
H        1.26993871       0.79089266      -0.67741740
H        0.50345445       1.43762505      -0.28813139
H       -0.39264697      -0.64899874      -1.38913751
H        1.32387865       0.84430856      -1.70092177
H       -1.01597381       1.14470875      -0.37104702
H       -1.39713049       0.36595914      -0.75067270
H       -0.82408512       1.78058314      -1.08301854
H        1.07768309      -0.09779513      -2.02519369
H        0.66136104       1.56685638      -2.00476193
H        0.14208651       1.89859128      -1.05757701
H       -0.84883392      -0.12304717      -2.14318800
H        0.24916291       0.09696345      -2.59873295
H       -0.46852195      -0.45925784      -2.12032914
H        0.68334430      -0.50495970      -1.28380823
H        0.15776020       1.96576762      -1.20439947
H       -1.00149679       1.42258596      -0.25313848
H        0.47816807       1.96462500      -2.24605107
