20
Properties=species:S:1:pos:R:3 pbc="F F F"
H        0.00000000       0.00000000       0.00000000
H        0.49089283       0.77460212       0.32722577
H       -0.14838916       1.50641334       0.38912773
H        0.18180066       2.17665935      -0.31448358
H       -0.97557962       0.29845181      -0.11177987
H        0.36592948      -0.28314662      -0.85672891
H        1.20130885       1.00421572      -0.37698337
H       -0.34824443      -0.23246998      -1.51661420
H        1.08334672       0.38709933      -1.15573847
H        1.03385258       1.84430718      -0.78018045
H       -1.20600665       0.17406490      -1.10412812
H        0.00009507       0.42861265      -2.14086604
H        0.81907171       0.88214743      -2.01504636
H       -0.50461483       2.29466748      -0.99490166
H       -0.07155168       2.07682896      -1.83933258
H        0.83839339       1.71992028      -1.78000426
H       -1.18602514       1.63358486      -0.77877486
H       -1.40922618       1.05391252      -1.46831322
H       -0.55778158       1.16134429      -2.12617588
H       -1.07897067       1.17406118       0.11184788
