21
Properties=species:S:1:pos:R:3 pbc="F F F"
H        0.00000000       0.00000000       0.00000000
H        0.42017129      -0.49897972       0.72286665
H       -0.10027859      -0.52769721      -0.81212115
H        0.15466353      -1.37317491      -0.55037743
H        1.31725132      -0.03543162       0.90642738
H        0.91830945      -1.56793344      -1.20782554
H        0.50751102      -1.35536242       0.41321230
H        1.49067378       0.73917049       0.34253281
H        0.71413451       0.69681674      -0.24037936
H        0.99687028       0.54533595      -1.15971327
H        1.50777316      -1.58497596       0.40443438
H        1.05775011      -0.81427276      -1.80833590
H        2.00621486      -0.79036582       0.66560769
H        1.78529775      -1.69232035      -0.67286474
H        2.61249518      -0.42451373      -0.07729214
H        2.25712585       0.55439949      -0.22884440
H        1.92124355       0.53658706      -1.19847822
H        1.57232177      -1.56793344       0.32337469
H        1.15486860      -0.33008370      -0.01681763
H        1.15486860      -0.33008370      -0.01681763
H        1.15486860      -0.33008370      -0.01681763
