21
Properties=species:S:1:pos:R:3 pbc="F F F"
H        0.00000000       0.00000000       0.00000000
H       -0.73394406      -0.63587439       0.07106813
H       -1.03547621      -0.95118290      -0.79940295
H        0.72652596      -0.49897972       0.41381180
H        0.44566745      -1.40563667       0.63095832
H       -0.36294460      -0.48763481      -1.42081130
H        0.23368323       0.06814399      -0.88864022
H        1.18634343      -0.29770809      -0.99779385
H       -0.42144543      -1.45234680       0.60869378
H       -0.56842357      -2.24674582      -0.02427655
H        0.35452956      -2.64565706      -0.23007084
H        1.13463843      -1.07231021      -1.58548355
H        0.53996527      -2.52764893      -1.17862165
H        1.29823601      -1.91774893      -1.21191370
H        1.02929664      -2.17599607       0.29162711
H       -0.89012104      -1.91164577      -0.86606491
H       -0.21673280      -2.03260088      -1.66406918
H        0.08441290      -1.10519397      -1.98430586
H        1.65658271      -1.71244800      -0.37542552
H        1.07830071      -1.01623893      -1.74431038
H        0.53517836      -1.29948235      -1.26791382
