21
Properties=species:S:1:pos:R:3 pbc="F F F"
H        0.00000000       0.00000000       0.00000000
H       -0.51304650      -0.77136850      -0.44169885
H       -0.31798306      -1.62016761      -0.00632399
H        0.34450892      -1.48940194       0.83518177
H        0.53883862      -0.36585209       0.79317653
H        0.09744471      -2.23006773      -0.64154255
H        0.59511763       0.43977645      -0.63284487
H        0.44716513      -1.33508837       0.80860472
H        0.58075672      -0.08792076      -1.45100760
H       -0.22439224      -1.06982028      -1.38027704
H        0.45052385      -0.38432610      -1.53076553
H        0.32368740       0.18649423      -0.02702200
H       -0.26016787      -1.36767328       0.08697885
H        0.22139928      -1.45871997      -0.26231563
H        0.71020257      -1.97678554      -0.89693153
H        0.71020257      -1.97678554      -0.89693153
H       -0.35528696      -2.10994077      -1.63550901
H       -0.15965590      -2.49342394      -0.53232110
H       -1.10371733      -2.57960176      -2.04457068
H       -1.08890057      -2.57960176      -2.07058430
H       -0.08172545      -3.25153637      -1.47969496
