21
Properties=species:S:1:pos:R:3 pbc="F F F"
H        0.00000000       0.00000000       0.00000000
H        0.63848275      -0.52769721      -0.51179713
H       -0.55369717       0.46354809      -0.72929174
H        0.47764969      -0.43874222      -1.52152157
H       -0.28337288       0.14444858      -1.69120979
H       -1.47724342       0.18040147      -0.60701746
H       -1.07225883      -0.35059950      -2.12238288
H       -0.76581740      -1.26903009      -2.22553182
H       -0.62887782      -0.58582085       0.56093717
H       -1.73630881      -0.34555009      -1.44938564
H       -1.58586383      -0.49686587       0.20095289
H       -1.89806247      -1.42427278      -0.10851806
H       -0.36480969      -1.56514001       0.40432951
H        0.50103796      -1.45679498      -0.25499508
H       -1.13660491      -2.09451866       0.04729159
H       -1.35379910      -1.85485101      -1.62186360
H       -0.77446228      -2.23330522      -0.93688023
H       -1.90833926      -1.27464783      -1.21434546
H        0.13595897      -1.35342336      -1.86812711
H        0.18768266      -1.98929775      -1.13256657
H       -1.72937894      -1.32806373      -0.20516562
