20
Properties=species:S:1:pos:R:3 pbc="F F F"
H        0.00000000       0.00000000       0.00000000
H        0.36038706      -0.22961354      -0.93312520
H       -0.71824318      -0.69681674       0.22780931
H       -0.31647888      -1.25259554       0.91900849
H        0.54903746      -0.84323359       1.09611070
H        1.23394978      -1.54005027       0.78200006
H        1.32239425      -0.34762165      -0.83997369
H        0.74791276      -0.05067664       0.62138504
H        0.74887532      -2.31465244       0.44620952
H        1.46407461      -1.28626692      -1.05661297
H        1.57020128      -0.22323474       0.14817780
H        0.94551927      -2.36806846      -0.55967402
H        1.90832114      -1.15064168       0.42909640
H       -0.04400146      -1.10630298      -1.28127682
H        0.18467015      -2.15022993      -1.12687421
H       -0.66499770      -1.34339821      -0.64371324
H        1.81281257      -1.75592792      -0.27824205
H       -0.15238430      -2.14638638       0.56933451
H        0.61260438      -1.63335741      -1.37690592
H       -0.40530685      -2.31836462      -0.26144543
