21
Properties=species:S:1:pos:R:3 pbc="F F F"
H        0.00000000       0.00000000       0.00000000
H        0.50912565      -0.18477097       0.80914259
H       -0.07084239       0.11368084       1.60153604
H       -0.47399119      -0.29568112       0.81543505
H       -0.93405598       0.45797956       1.22579694
H       -0.96402192       0.26419187       0.23278357
H        0.75363070       0.64286757       0.26848829
H        0.28956425       1.45933998       0.68241948
H       -0.22425008       1.15479636       1.47867227
H       -0.09943530       0.99579191      -0.14651138
H       -0.75158221       1.27918327       0.60702288
H       -0.86532289       0.38450319       0.11719167
H        0.69289708       0.69507670       1.18351805
H       -0.14044476       0.64049292       1.27460814
H       -0.41035762       0.83940685      -0.19186592
H       -1.03301096       2.16922379      -0.12166083
H       -1.04397023       2.14157772      -0.15003681
H       -1.05841017       2.16922379      -0.11133546
H       -1.08343160       2.16922379      -0.10012501
H       -1.03301096       2.16922379      -0.12166083
H       -1.82971835       0.20481589       1.86935568
