21
Properties=species:S:1:pos:R:3 pbc="F F F"
H        0.00000000       0.00000000       0.00000000
H       -0.12270200      -0.91159266      -0.45526573
H       -0.74649262       0.22961354       0.66584551
H        0.24260229      -0.82719946       0.44333956
H       -0.05179453      -0.32616526       1.06152892
H       -1.01647818      -0.44417337       1.12086177
H       -0.37153912      -1.24459589       1.01347184
H       -0.76494926      -0.17978144      -0.46090174
H        0.00000000      -0.20474620       1.05934238
H        0.27872393       0.37845421       0.85272878
H        0.28263676       0.34709048       0.86469972
H        0.24529825       0.57358170      -0.43959382
H        0.38090867      -0.28314662       0.85017496
H        0.36002141      -0.18477097       0.88561004
H       -0.15263188      -0.02609876       0.78736144
H        0.29539043       0.23470905       1.17789400
H        0.16998775       0.01689900       0.95858204
H        0.19257477      -0.25316367       1.08595300
H        0.18460312      -0.40337542       1.04099989
H        0.22102267      -0.40337542       1.03388011
H       -0.15230916       0.74172658      -1.23349857
