21
Properties=species:S:1:pos:R:3 pbc="F F F"
H        0.00000000       0.00000000       0.00000000
H        0.36925858       0.05341591      -0.95609558
H        0.22403912      -0.81647241      -0.58008897
H       -0.96090299       0.15148079      -0.04218873
H       -0.41124165       0.28302944      -1.58173192
H       -0.22963251       0.72280586      -0.73221695
H       -1.11326742      -0.46437907      -1.53855383
H       -1.23475444       0.43462741      -0.93263477
H       -0.10303715      -0.63540119      -1.48397684
H       -0.51441562      -0.71336359      -0.01472745
H       -1.38590384      -0.48439360      -0.64476556
H       -0.74698865      -1.18692696      -0.90840441
H       -0.91268879       0.26918858      -0.03093761
H       -0.39783484       1.40830004      -0.06149608
H        0.04526620       1.80256808      -0.53469443
H        0.07552947       1.79017115      -0.51294935
H        0.28133112       1.61492050      -0.09131502
H       -1.36439300       0.73554236       0.68580109
H       -1.32785523       0.61218446       0.60674989
H       -1.41443181       0.73554236       0.61616045
H       -1.62457252       0.51269686      -2.37899113
