21
Properties=species:S:1:pos:R:3 pbc="F F F"
H        0.00000000       0.00000000       0.00000000
H        0.38154608      -0.49897972      -0.74397767
H       -0.09795370      -1.02162731       0.00257934
H        0.11335676      -0.58185089       0.84519750
H        1.10964680      -0.63526678       1.08577311
H        0.59947801      -1.39551163       0.62225533
H        0.88823891       0.21783850      -0.33412406
H        1.44283366      -1.09724689       0.40287611
H        1.51706719      -0.13628706       0.35564375
H        0.73241293      -1.39365983      -0.38375002
H        1.31668854      -0.63999915      -0.58041859
H        0.70998859       0.17180979       0.68999767
H        0.70967758      -1.41100395      -0.32387421
H        0.33850515      -1.51938391       0.47079781
H        0.33850515      -1.51938391       0.47079781
H        2.51626539      -0.59937429       0.35574684
H        2.51626539      -0.59937429       0.35574684
H        2.51626539      -0.59937429       0.35574684
H        2.51626539      -0.59937429       0.35574684
H        2.51626539      -0.59937429       0.35574684
H        2.51626539      -0.59937429       0.35574684
