21
Properties=species:S:1:pos:R:3 pbc="F F F"
H        0.00000000       0.00000000       0.00000000
H       -0.21671417       0.94706190      -0.06457304
H        0.08510087      -0.33235219      -0.96727651
H        0.65560651       1.36643004      -0.54134804
H       -0.00273287       0.92665362      -1.10813439
H        0.94681740      -0.20474620      -0.47512430
H       -0.06017210       0.39945903      -1.59290349
H       -0.59175628       0.33234733      -0.79586869
H        1.31319070       0.60891461      -0.86472368
H        0.75343382      -0.09570295      -1.45996618
H        0.72876161       1.04232657      -1.46012986
H        0.86101472       0.62672704       0.05644059
H        0.77764237       0.63330483       0.21280545
H       -0.74341249       1.21200061      -1.09158361
H       -0.82222927       1.13129532      -1.06545448
H        0.11682907       0.86266869       0.84629887
H       -0.88685381       1.17178333      -1.01471376
H       -1.36220980       0.83152032      -0.72126538
H       -1.34148026       0.85808402      -0.69660789
H       -1.07616735      -0.62500542      -0.18056399
H       -1.07616735      -0.62500542      -0.18056399
