21
Properties=species:S:1:pos:R:3 pbc="F F F"
H        0.00000000       0.00000000       0.00000000
H        0.13252793       0.60990006       0.74734145
H       -0.30700275       0.97931916      -0.00269409
H       -1.30870092       1.06827414       0.20227373
H       -1.53871894       0.66936296       1.11948991
H       -0.93011469       0.19475858      -0.38765916
H       -1.66120183       0.11260885       0.32785553
H       -0.90456659      -0.49729121       0.26797298
H       -0.57914037       1.27777100       0.94080555
H       -0.20147890      -0.30253261       0.98981833
H       -0.71353114       0.38621634       1.55187166
H       -1.17730856      -0.38515216       1.05869317
H       -0.97624385       0.33646291      -0.34725845
H       -0.54892921       0.45023113       1.49797177
H       -1.08429539      -0.99505222       0.30541271
H       -0.85533524       0.73898917       0.05260738
H       -0.75208420       0.69681674       0.04625693
H       -0.98404378      -0.15292373       1.39821565
H       -1.02366030      -0.15292373       1.39473021
H       -0.98404378      -0.15292373       1.39821565
H       -1.01700675      -1.50666082      -0.43793663
