21
Properties=species:S:1:pos:R:3 pbc="F F F"
H        0.00000000       0.00000000       0.00000000
H        0.75529516      -0.29845181       0.62751859
H        0.94185483      -0.24777517      -0.32678133
H        1.36158490      -0.94131935       0.10554355
H        0.21067464      -0.68755162      -0.79585826
H       -0.52942121      -0.95174348      -0.13571846
H        1.08130193      -1.15443206      -0.65326047
H       -0.13131201      -1.70540416       0.33498904
H        0.75416535      -1.23977113       0.87709516
H        0.06202084      -1.51064563      -0.65395761
H        0.79024625      -1.75608075       0.02479038
H       -0.21540016      -0.67024595       0.74679112
H        0.02085257      -1.62700534       0.47629616
H        0.58643967      -1.22646725       1.06458759
H       -0.05890487      -0.65608734      -0.05372196
H        1.46546257      -1.26497209      -1.24066925
H        1.86696088      -0.96652031      -0.34453899
H        0.44304860      -1.17601705      -1.24964142
H        1.12988710      -2.31185961      -0.69896019
H        1.63044930      -3.12552047      -0.88725400
H        0.52544111      -2.12708855      -1.43961239
