21
Properties=species:S:1:pos:R:3 pbc="F F F"
H        0.00000000       0.00000000       0.00000000
H        0.88791460       0.34709048      -0.19798161
H        0.73623067      -0.09268597       0.65738350
H        0.73623067       0.65472257       1.36073589
H        0.04271901       0.81063855      -0.55024767
H       -0.16005075       0.32237038       0.98717797
H        0.92292380       1.31632674      -0.11186303
H        1.37046647       0.70171309       0.51596558
H        0.88961899       1.53416526       0.83655566
H        0.02242112       1.20638943       1.17505515
H       -0.55876350       0.75996190       0.21376258
H       -0.06749607       1.48138976       0.07126927
H        0.04792857       0.82900691      -0.51314849
H        0.02328284       1.01761651       0.13129482
H       -0.04811994      -0.96923625      -0.07953948
H        0.03331784       1.02440715       0.05295134
H        0.20241427       0.98296487       0.07370563
H       -0.25347009       0.63773412      -0.33385333
H       -0.18306851       0.70053869      -0.24112523
H       -0.13804697       0.72821170      -0.18182595
H        0.17420520       0.90162408      -0.56643963
