21
Properties=species:S:1:pos:R:3 pbc="F F F"
H        0.00000000       0.00000000       0.00000000
H        0.88292891      -0.28314662      -0.29719594
H        1.23361528      -0.71463621       0.56545091
H        0.13344057      -0.77460212      -0.57467043
H        0.91659337      -1.21437860      -0.19873261
H        0.55679530      -0.63024300       1.26032758
H        0.81434560       0.03083962       0.59347039
H       -0.19050199      -0.13126329       0.88532495
H       -0.28017133      -1.21498847       0.91149127
H       -0.13526273      -1.53029704       0.00174236
H        0.54319304      -1.47962046       0.69829863
H       -0.58923852      -0.65896046       0.17075807
H       -0.09477061      -1.52813566       0.00821303
H        0.30975479      -1.15400851       0.16286884
H       -1.37715006      -0.29385385       0.16384380
H       -1.44186687      -0.18929943       0.19320972
H        0.50607687      -1.40974700       0.28124785
H        0.07553744       0.23108011       0.58094716
H        0.07553744       0.23108011       0.58094716
H        0.07489526       0.25765383       0.51875073
H        1.21465194      -0.16350174       0.82147533
