21
Properties=species:S:1:pos:R:3 pbc="F F F"
H        0.00000000       0.00000000       0.00000000
H       -0.04850490       0.68549418       0.68978679
H       -0.43306309       0.21783850      -0.84443092
H       -0.46033978       0.88808441      -0.06767470
H       -1.47810936       0.76369750      -0.11236016
H       -0.48105580      -0.87668937       0.23092192
H       -1.67221844      -0.13009328       0.22158687
H       -0.24207160      -0.31276011       0.82886994
H       -1.00873280       1.01784635       0.54546601
H       -0.84202445      -0.65604484       0.51735157
H       -0.43306309      -0.67684162      -0.34156764
H       -1.59757984       0.24324423       0.58168304
H       -0.84202445       0.14687318       0.96863914
H       -0.98062634       0.17408329      -0.51113427
H       -1.03662682      -0.67840362       0.57676035
H       -1.39036357       0.75677323       1.49343157
H       -1.39230537       0.78274757       1.45947063
H       -1.40554309       1.00451565       0.98347789
H       -1.40519595       1.00451565       0.94391292
H       -0.88104349       0.24571773       0.44172019
H       -0.47376978      -0.24421901       1.51071405
