21
Properties=species:S:1:pos:R:3 pbc="F F F"
H        0.00000000       0.00000000       0.00000000
H       -0.06381270       0.34709048       0.90747839
H        0.78765756       0.00000000       0.58718538
H        1.37193322       0.75366068       0.39051685
H        0.69926298       0.83173102       1.08565378
H        0.94651794       0.13894612      -0.31266996
H       -0.14943039       1.41647649       0.76640534
H       -0.59589392       0.86025518       0.02842700
H        0.14458090       0.64241672      -0.56512523
H       -0.53696871       0.67944264       0.05954599
H        0.83813626       1.56732154       0.42334801
H        0.95981675       1.00706053      -0.33152533
H        0.14746881       1.39429474      -0.13536665
H        0.50692546       1.11207771      -1.33725595
H        0.66025287       2.05418134      -0.96008867
H        0.62570482       1.17097223      -0.21347046
H        0.88462937       1.00081229       0.03113329
H       -0.14228508       0.47437280       0.35932621
H       -0.26437783       2.08866024       1.30409575
H        1.23497164       1.24743783       0.75425637
H        1.23369253       1.24743783       0.70567900
