21
Properties=species:S:1:pos:R:3 pbc="F F F"
H        0.00000000       0.00000000       0.00000000
H       -0.30729049       0.46966103      -0.79564559
H       -0.85562962      -0.14023903      -0.27085316
H       -0.87271512      -0.12334003      -1.24424076
H       -0.35084981      -0.97780097       0.04061291
H        0.02260503       0.00611293      -1.64982116
H        0.61969137      -0.72569829      -1.41317546
H        0.14750049      -1.28147709      -0.76803476
H        0.64646769       0.08895500      -0.79214299
H       -0.26501122      -0.94912493      -1.64706838
H        0.56981146      -0.77136850      -0.36555359
H       -0.91014546      -1.00002944      -0.71194518
H       -0.89213669      -1.10879385      -0.85048604
H       -0.78269362      -1.72372699      -1.93001258
H       -0.95683420      -0.13819903      -1.48001301
H        0.25538704      -1.07604122      -1.03177142
H        0.49128559      -0.14536786      -2.48973370
H       -0.57588756      -0.42037955      -0.06213498
H        0.17657571      -0.73105675      -1.33615518
H       -0.18374717       0.10494054      -0.39361373
H       -0.31113154      -1.03920984      -0.34235635
