21
Properties=species:S:1:pos:R:3 pbc="F F F"
H        0.00000000       0.00000000       0.00000000
H        0.42017129      -0.49897972       0.72286665
H        0.56358576      -0.73181123      -0.30803308
H        0.06479475      -1.46454287      -0.55833226
H       -0.53737581      -0.16662753       0.88401723
H        0.48965603      -1.47921968       0.39142302
H       -0.27789032      -0.52243918      -0.77817643
H       -0.91931516      -0.21730417      -0.01019484
H       -0.23691180      -1.22152758       1.03828716
H       -1.07578290      -1.03675663       0.57979423
H       -0.89240801      -1.19662333      -0.31602806
H       -0.47833002      -1.81157184       0.31481355
H       -0.54670036      -0.25345212       0.89621365
H       -0.38816774      -0.72254789       0.61690694
H        0.39855319       0.68549418      -0.56507868
H        0.37847659       0.68549418      -0.57871759
H       -0.44788584      -0.83370912       0.71181571
H       -0.17206350      -0.77336067      -0.88014865
H       -0.10654569      -0.80401933      -0.86287618
H       -0.07619810      -0.80401933      -0.86608380
H       -1.12607861      -0.71859360      -0.86310714
