21
Properties=species:S:1:pos:R:3 pbc="F F F"
H        0.00000000       0.00000000       0.00000000
H        0.63772744       0.77136850       0.22719663
H       -0.28758201       0.74740851       0.64187306
H        1.27247310       0.42427802       0.87887675
H       -0.53664577      -0.19475858       0.85288006
H        0.53798121       1.00746882       1.14054656
H        0.96132231      -0.30827296       0.15039778
H       -0.22855753       0.50205815       1.54052234
H        0.79004639       0.25380814       1.70314741
H        1.06788516      -0.46794188       1.15860116
H        0.24138236      -0.76639366       0.62837148
H        0.14346084      -0.48324704       1.55481637
H        1.02856302      -0.23330534       0.18241559
H        0.07904726       0.07322371       1.36532903
H        0.14038402      -0.01304621       1.33724999
H        0.37878159      -0.01866496      -0.23581547
H        0.40917310      -0.01866496      -0.21188915
H        1.00389016       1.90672433       0.55380082
H        1.00389016       1.90672433       0.55380082
H        1.00389016       1.90672433       0.55380082
H        0.99220252       1.90672433       0.56644988
