12
Properties=species:S:1:pos:R:3 pbc="F F F"
H        0.00000000       0.00000000       0.00000000
H       -0.27385142       0.28314662      -0.89044607
H       -0.49692756      -0.54858440      -0.43599972
H        0.12626654      -0.96543115       0.00776605
H        0.85075116      -1.15020216      -0.61596680
H       -0.04585746      -1.34388542      -0.87269211
H        0.85545343      -0.32955676      -0.10182957
H        0.56872594      -0.96543121      -1.52623677
H        1.14128637      -0.27888012      -1.03123391
H        0.61696017       0.43977645      -0.61156988
H       -0.33675826      -0.61834073      -1.43855834
H        0.40939140      -0.00844067      -1.57763934
