21
Properties=species:S:1:pos:R:3 pbc="F F F"
H        0.00000000       0.00000000       0.00000000
H        0.15274149      -0.33235219      -0.95892441
H        0.54700011       0.79461014       0.13208489
H       -0.60686690       0.37226537      -0.65786558
H        0.86384273       0.11800810      -0.43348664
H       -0.40149572       0.94210368       0.06756981
H        1.07694399       1.03643870      -0.67666131
H        0.41531533       1.31958532      -1.33250916
H        0.77874172       0.45036030      -1.40076315
H       -0.51438785       1.25741220      -0.84670419
H       -0.21779829       0.43901631      -1.52550614
H        0.35540462       1.55586398      -0.39095053
H       -0.27581528       0.53486431      -1.53542161
H       -0.73981982       1.09486389      -1.46486211
H       -0.73466915       1.13535190      -1.54686403
H       -0.56111038       1.17628467      -1.52609003
H       -0.80454445       0.82407904      -0.74025488
H       -0.80731404       0.82407904      -0.73326671
H        1.10689616       1.45441818      -1.24094629
H        1.10689616       1.45441818      -1.24094629
H       -0.90634698       1.34379196      -1.77738392
