21
Properties=species:S:1:pos:R:3 pbc="F F F"
H        0.00000000       0.00000000       0.00000000
H        0.87909138       0.39891118       0.34841394
H        0.74871731       0.11576456       1.27085173
H        0.91328973      -0.39548784      -0.30049628
H       -0.37055480      -0.63587439       0.63750589
H        0.17694455      -0.86548793      -0.19965953
H        0.26420480      -0.65368682       1.44378543
H       -0.00481871       0.19585663       0.98753661
H        1.08536863      -1.06024647       0.23641241
H        1.08536863      -0.83063293       1.23671305
H        1.50845265      -0.37245733       0.59785128
H        0.94982338       0.04691085       1.42015958
H       -0.01257670       0.38109872       0.85628659
H        0.44733563       1.50160193       0.34462509
H        0.15947884      -0.49872983       1.62782228
H        0.46886045      -1.46958351       0.68913424
H        0.46886045      -1.46958351       0.68913424
H        0.49723464      -1.43989372       0.69087940
H        1.18661427       1.43764091       0.02139577
H        0.49723464      -1.43989372       0.69087940
H        1.42898750      -1.63630939       0.84096718
