21
Properties=species:S:1:pos:R:3 pbc="F F F"
H        0.00000000       0.00000000       0.00000000
H       -0.49101692      -0.19475858      -0.87994057
H        0.23445779       0.52778929      -0.80969256
H        0.90604109       0.18477097      -0.30497557
H        1.03164232       0.13135506      -1.32217526
H       -0.26074678      -0.90665692      -0.24092583
H        0.21111673      -0.14134267      -1.62658572
H        0.62180150      -1.33814645      -0.53799361
H        0.53339773      -0.66231132       0.29840273
H        1.33471787      -0.60045618      -0.75590801
H        1.33407617      -0.64449888      -0.34340769
H        0.85975701      -0.85042262      -1.46995759
H       -0.07531105      -1.02466500      -1.18947661
H        0.86194956       0.20253307      -0.00517383
H       -0.03624415       0.04155940      -2.26705980
H        0.51457119      -0.77491301      -1.97844374
H       -0.06268805       0.73837614      -1.51401854
H       -0.32042485      -0.83512998      -1.81541729
H       -0.51063210      -0.69183731      -0.92568350
H       -0.88814163       0.26871511      -1.72874093
H        0.26698348       0.01415862      -0.77073461
