21
Properties=species:S:1:pos:R:3 pbc="F F F"
H        0.00000000       0.00000000       0.00000000
H       -0.43620220       0.58582085      -0.72101700
H       -1.38598013       0.40104988      -0.82984054
H       -0.71306878      -0.15472892      -1.26153624
H        0.05219290      -0.26419187      -0.99035472
H       -0.93913722       0.41796374       0.21866781
H       -0.66433370      -0.98673975      -1.12391388
H       -1.45932388      -0.60487318      -1.01974416
H       -1.65990949      -0.30458415       0.11033683
H       -0.78180277      -0.61989266       0.38885105
H       -0.16736722      -0.91843063      -0.27664831
H       -1.62582326      -0.20045289      -0.17485386
H       -1.17499554      -1.11318922      -0.28549069
H       -1.41582668       0.43394929      -0.56927222
H       -1.29126215       0.29888836      -0.47156727
H       -1.02461946      -0.28956467      -0.20754123
H       -0.74350429      -0.19992700      -0.39482641
H       -0.99528873      -0.71207535       0.12172735
H       -0.95368832      -0.58340687       0.10881698
H       -1.25407517      -0.46134984       0.13767898
H       -0.96643090      -0.32815942       0.08037591
