12
Properties=species:S:1:pos:R:3 pbc="F F F"
H        0.00000000       0.00000000       0.00000000
H        0.73469222      -0.22961354      -0.67884368
H        0.75792736      -0.58319080       0.18301782
H        0.40630877       0.75366068      -0.46364817
H        1.60917687      -0.31400675      -0.25906372
H        0.53582919       0.07789183       0.86250520
H        0.28257808       0.89468008       0.41595811
H        1.46076941      -0.17275175       0.69009793
H        1.15352201       0.79532373       0.83758634
H        1.10451448       1.22681332      -0.09232706
H        1.87726378       0.53479236       0.13556322
H        1.43354011       0.48411572      -0.72965479
