21
Properties=species:S:1:pos:R:3 pbc="F F F"
H        0.00000000       0.00000000       0.00000000
H        0.63883960       0.60990006      -0.40983751
H        0.67308158      -0.41450709      -0.46219596
H       -0.17717290       0.87984765      -0.37754306
H        0.29815334       1.00881124      -1.29195237
H       -0.25228083      -0.73181123      -0.59065020
H       -0.86058342       0.08895500      -0.55209351
H       -0.64788067      -0.30032164      -1.43364573
H        0.09914798       0.23744273      -1.93903160
H       -0.64451718       0.60990006      -1.36655831
H        0.88754529       0.23420912      -1.31782973
H       -0.62720931       0.67510146      -1.33653915
H        0.30862308      -0.60335284      -1.44691432
H       -0.30028534       1.31571746      -0.16573930
H       -0.68709660      -0.16420867      -1.64125896
H        0.34440541       0.38226321      -2.64704704
H        0.75848716       0.44350618      -2.54825020
H       -0.71722925      -0.09527838      -1.71306813
H        1.09951901       0.09391938      -1.32176912
H        1.09951901       0.09391938      -1.32176912
H        0.83257467       0.60388231      -2.71895361
