21
Properties=species:S:1:pos:R:3 pbc="F F F"
H        0.00000000       0.00000000       0.00000000
H        0.54069358       0.79439902       0.36042264
H        0.10860792       1.25794709       1.16773236
H       -0.81764913       1.47578561       0.96120119
H       -0.47659034       0.81221145       0.49510741
H        0.73969901       1.56576753      -0.28665653
H       -0.96076763       1.33249295       0.06269014
H       -0.69936877       2.22944641       0.35616714
H       -0.13561934       0.81221145      -0.41133347
H        0.74210465       1.81416845       0.58239168
H       -0.10299182       2.19262266       0.88346535
H        0.19626415       2.30425191       0.01956564
H       -0.37219805       1.74803066      -0.62911958
H        0.54863775       1.56325972      -0.37224987
H        0.17540790       1.54875255       0.40846801
H        0.41843981       3.07885408       0.56609148
H        0.00000000       1.10909474       0.22445430
H       -0.29622501       2.99511313      -0.16569135
H       -0.60242444       2.82019711       1.11079073
H       -0.60242444       2.82019711       1.11079073
H       -0.60242444       2.82019711       1.11079073
