21
Properties=species:S:1:pos:R:3 pbc="F F F"
H        0.00000000       0.00000000       0.00000000
H        0.05110265      -0.33235219      -0.96966726
H        0.37592325      -0.88857353      -0.17064708
H        1.04990768      -0.67073500      -0.83874303
H        0.68408644      -0.36087632       0.58739775
H        0.60419160       0.61844283       0.29096100
H        0.85871083       0.25346866      -1.21030569
H        1.42881179       0.08339760       0.27700654
H        1.72749770       0.05181289      -0.57019103
H        1.17517054       0.93232679      -0.28078273
H        1.32281029      -0.77056545       0.02310519
H        0.13618764       0.64696693      -0.67467833
H        0.21927017       0.88165015      -0.45896071
H        1.15227127       0.83040106      -0.55508888
H        1.11808002      -0.58235681      -0.07757661
H        2.08566403       0.34757501       0.68230641
H        1.35448980      -0.02512013      -0.50951117
H        1.35448980      -0.02512013      -0.50951117
H        0.90858757       0.91710675       0.93780160
H        2.44664192       0.55914259       0.41176373
H        2.42966032       0.59448910       0.40951538
