21
Properties=species:S:1:pos:R:3 pbc="F F F"
H        0.00000000       0.00000000       0.00000000
H        0.47219095      -0.55577880       0.64514065
H        0.40926167      -0.17732459       1.54005587
H       -0.51628155      -0.55577880       0.61042947
H       -0.83813930       0.39988649       0.41954923
H       -0.96368796       0.02143228       1.30784583
H        0.77677500       0.36265182       0.75365168
H       -0.46700302       0.16976589       1.78449249
H       -0.10714138       1.03576088       0.51633084
H       -0.09575951      -0.59443074       1.48544157
H        0.29798639       0.85769987       1.51458049
H       -0.67633146       1.00075150       1.19975245
H       -0.01846848       0.17811847      -0.04036528
H        0.93225586      -1.30943942       1.05550241
H       -0.08011299       1.99009824       0.70756531
H        0.83594275       0.54844105       0.70930493
H        1.50926960      -2.06310010       0.83845025
H        0.96236145      -1.17433488       1.91282117
H        0.15353799      -1.67529154       1.61503315
H        0.42031920      -1.62147832       2.31480503
H        0.33775255       1.28081226       1.55883265
