21
Properties=species:S:1:pos:R:3 pbc="F F F"
H        0.00000000       0.00000000       0.00000000
H        0.87747955       0.49504808      -0.19565487
H        0.77202982      -0.20176867       0.55043542
H        0.18906660      -0.90665692       0.30047953
H       -0.09781761      -0.81647241      -0.61410785
H        0.71863329      -0.90086561      -1.13788903
H        0.57894182      -1.54373312      -0.35015082
H        1.18748069      -1.13627052       0.36188716
H        1.36300528      -0.15345711      -0.85595071
H        1.48782611      -1.11224353      -0.55280811
H        0.36371249      -0.02101797      -0.91889089
H        1.58728552      -0.20176867       0.05722043
H        1.55288041      -1.06011152      -0.59561276
H        1.88330007      -0.48298976      -0.70922935
H        1.85621977      -0.48298976      -0.71914566
H        1.58352709      -0.65358233      -0.15690634
H        0.84677684      -1.36441374      -0.23123235
H        0.51880926      -0.49150366      -1.99844360
H        0.51880926      -0.49150366      -1.99844360
H        0.91632050      -1.29977679      -0.21316546
H        1.24485123      -1.77674150      -1.62410593
