21
Properties=species:S:1:pos:R:3 pbc="F F F"
H        0.00000000       0.00000000       0.00000000
H        0.69739223       0.29845181      -0.69129914
H        0.41807699       0.79349989       0.16323829
H        0.76376128      -0.69093096      -0.42664707
H        0.40899628       0.22961354       0.91286558
H        1.23787332      -0.26936617       1.02260602
H        1.62054038      -0.13303778      -0.56907755
H        1.31087685       0.76017451       0.70821166
H        1.36412120       0.74008399      -0.23105988
H        0.58587915      -0.81531787       0.57645297
H        1.92233133       0.09721643       0.34204277
H        1.49693871      -0.79531777       0.18023795
H        0.08624238      -0.10774016      -0.04074863
H        0.94810361      -0.98011363      -0.19542193
H        1.70927703       1.30533409      -0.48836780
H        0.73295212       1.07572055      -0.70606279
H        1.01448023       0.39795828       0.15524507
H        0.23472059       1.10548949       1.60780454
H        0.24221967       1.12982678       1.57790136
H        1.20349288       0.21925312       0.37023985
H        0.34301040       1.14120626       1.37973654
