21
Properties=species:S:1:pos:R:3 pbc="F F F"
H        0.00000000       0.00000000       0.00000000
H       -0.81573808      -0.52769721      -0.06456009
H       -0.80580151       0.34709048       0.42222381
H       -0.18564937       0.97931916      -0.24452455
H       -0.52112699       1.03273511      -1.21299016
H       -1.26626325       0.33591837      -1.32498300
H       -0.90297055      -0.55876172      -0.97729075
H       -1.16552949       1.06827414      -0.53649366
H       -1.51488936      -0.04253584      -0.46299779
H       -1.35779583       1.01733637      -0.12494761
H       -1.62308812       0.01473829      -0.10209346
H       -0.41896471       0.23584843      -1.26433420
H       -0.10371977      -0.51082438      -0.52205658
H        0.03863572       0.34580463      -0.51330096
H       -0.27165353       0.93028128      -0.14578623
H       -0.60787493       0.49728543       0.19883555
H        0.64226651       1.13537550      -1.01719677
H        0.64648521       1.01218224      -1.01648688
H        0.65124798       1.09436882      -1.05777180
H        0.64507842       1.09436882      -1.01672363
H        0.64226651       1.13537550      -1.01719677
