12
Properties=species:S:1:pos:R:3 pbc="F F F"
H        0.00000000       0.00000000       0.00000000
H       -0.50007260       0.47200781      -0.61275923
H       -0.82129663       0.40936196       0.32550800
H       -0.82839060       1.22566843      -0.09097022
H        0.42540777       0.67024595      -0.65047866
H       -0.07475990       1.86853600       0.17751807
H       -0.11801273       1.25382137      -0.64320064
H       -0.52629083       1.17499185       0.83327466
H        0.71049821       1.23692238      -0.13198155
H        0.05199862       0.42717442       0.86436045
H        0.44369173       1.25938511       0.82476246
H        0.82215667       0.55622131       0.26076820
