21
Properties=species:S:1:pos:R:3 pbc="F F F"
H        0.00000000       0.00000000       0.00000000
H        0.14728610      -1.02954066      -0.28719354
H        0.82842803       0.58582085      -0.15441753
H       -0.13900913      -0.30699277      -0.95747960
H        0.58845979      -0.97723871      -1.23112762
H        0.15211511       0.56800842      -0.92617363
H        0.58189255      -0.02157342      -1.60527277
H        1.46891677      -0.45128715      -1.26978433
H        1.61716712       0.00000000      -0.45111328
H        0.96887624      -0.43977645       0.12713969
H        1.09546745       0.60363328      -1.14522350
H        1.35474110      -0.40104055      -1.44108653
H        1.34391844      -1.05449104      -0.60415590
H        1.26425123      -0.60763353       1.15120256
H        0.81414294      -0.15002739      -1.69377887
H        1.06988823      -0.11891460      -0.41680461
H        1.07447040       1.37498093      -1.54364157
H        2.03830194       0.82147181      -1.25325131
H        1.41612029       0.84072852      -1.97546768
H        1.10660517       0.91143286      -0.62853813
H        0.94556010      -0.03885877      -1.56218588
