12
Properties=species:S:1:pos:R:3 pbc="F F F"
H        0.00000000       0.00000000       0.00000000
H        0.93511528      -0.39891118      -0.14054634
H        1.22890532      -0.79782236       0.75827581
H        0.06729162      -0.86245930      -0.43265790
H        0.82530618      -1.38101315       0.09114981
H        0.81810534       0.10006854       0.68733579
H       -0.17917614      -0.01781246       1.01039720
H       -0.35934925      -0.94691014       1.23925519
H        0.53186423      -0.54550964       1.41538882
H        0.55219251      -1.43930042       1.02966130
H       -0.65286911      -0.63252699       0.33878356
H       -0.22367373      -1.50313139       0.38747239
