21
Properties=species:S:1:pos:R:3 pbc="F F F"
H        0.00000000       0.00000000       0.00000000
H        0.21426670       0.05341591       1.00227761
H       -0.62972569       0.31760776       1.52304935
H        0.14682205       0.94720668       1.38260663
H       -0.63474584      -0.34709048       0.65167999
H        0.44737887       0.85825169       0.40532649
H       -0.26074678       0.90665692      -0.24092583
H       -0.19536507       1.56733155       0.58462179
H       -1.07822442       1.25202298       0.32156137
H       -0.88051778       1.26887977       1.28805351
H       -0.96925139       0.18410903      -0.06984234
H       -1.34083235       0.52021176       0.90769315
H       -1.14114070       1.21364975       0.20333779
H       -1.56882083       0.53119951      -0.75402474
H       -1.27715492       0.39884287       0.99765742
H       -1.52252555       0.81653166       0.14943917
H       -1.59347844       1.04650354       0.44878149
H       -1.48250484       0.89318895       0.35658175
H       -1.44857621       1.04650354       0.58504534
H       -1.59686399       1.01781821       0.48996633
H        0.26721555      -1.36606836       0.15870452
