21
Properties=species:S:1:pos:R:3 pbc="F F F"
H        0.00000000       0.00000000       0.00000000
H        0.52815789      -0.26419187       0.83939010
H       -0.59926367       0.75366068       0.14470494
H        0.37123919       0.77055967       0.06789623
H       -0.51375932      -0.11162928       0.75625926
H        0.90640152       0.53041828       1.25602818
H        0.00082338       0.24727166       1.47469926
H        0.84791982       1.23949814       0.59131283
H       -0.71832836       0.74625134       1.04820085
H        0.17945777       1.25319469       1.37706494
H       -0.16244806       1.47103322       0.49179232
H        1.06720233       0.34570819       0.30505514
H        0.22076780      -0.08578140      -0.08313194
H        1.59224963      -0.31537443      -0.18008000
H        2.26835227      -0.48611271      -0.49015036
H        1.04391646      -0.27017635      -0.85197502
H        1.58454251      -1.17160690      -0.59292591
H        1.08639765      -0.88250566       0.24019480
H        1.43261838       0.59466803      -0.63057971
H        2.38023615       0.06966609       0.30146369
H        2.11765552       0.46822464      -0.61094636
