21
Properties=species:S:1:pos:R:3 pbc="F F F"
H        0.00000000       0.00000000       0.00000000
H        0.17388797      -0.66108263       0.69339287
H        0.33900332      -0.86484438      -0.29185924
H       -0.44618729      -0.46354809      -0.79960239
H       -1.28556299      -0.76181293      -0.56545609
H       -0.46525544      -1.37652755      -0.51500297
H       -0.10319528      -1.52592707       0.26982674
H       -1.12313414      -1.50091445       0.26284492
H       -0.70726347      -0.97496289       1.03985882
H       -0.98612249       0.03543162      -0.16120589
H       -1.37542617      -0.62787241       0.42248720
H       -0.61138856      -0.01315784       0.72530138
H       -0.63418043      -1.03087902       0.99529624
H       -1.38353169       0.61528224      -0.26458254
H       -0.51692092      -1.18409371       0.50561661
H       -1.03277671       0.85168654       0.87542498
H       -1.03778565       0.85168654       0.86054420
H       -2.17307043      -0.29033217       0.35935912
H       -2.21073151      -0.12889269       0.38581288
H       -0.21515760      -0.02822992      -0.04731035
H       -0.53584003      -0.11840831      -0.13340104
