21
Properties=species:S:1:pos:R:3 pbc="F F F"
H        0.00000000       0.00000000       0.00000000
H       -0.02481474      -0.91159266      -0.47085762
H        0.81747240      -0.28314662      -0.44679719
H       -0.35956746      -0.92849165       0.44331741
H        0.06612334      -1.70599174       0.17255849
H        0.88380331       0.11576456       0.49649173
H        0.97768575      -1.28140092      -0.27032095
H        0.07584435      -0.21658763       1.03507161
H        0.27604711      -1.32740283       1.14345169
H        1.01807415      -0.61604667       1.12457180
H        0.96413368      -1.54632282       0.64309776
H        0.13380273      -1.22896731       1.19334984
H        1.48722935      -0.74257827       0.24499214
H        0.83244950      -1.63072217       0.57409787
H       -0.64385462      -0.56367815       1.59150887
H       -0.16412151      -0.55441290       1.15570176
H       -0.16044581      -0.63659948       1.23868835
H        1.98411822      -0.66672331       1.01388466
H       -0.16230083      -0.67768043       1.19717073
H       -0.55077827       0.24496180       1.28886497
H       -0.69366133       0.24496180       1.27881765
