12
Properties=species:S:1:pos:R:3 pbc="F F F"
H        0.00000000       0.00000000       0.00000000
H        0.49089283       0.77460212       0.32722577
H       -0.10027850       1.30229926       0.89301109
H       -0.04724680       1.49705780      -0.11325955
H       -0.03121579       0.83756196      -0.59231693
H       -0.86232984       0.01689900       0.45184347
H       -0.90584773       0.31375703      -0.49509963
H       -0.90702307       1.24692392      -0.47636315
H       -0.88211310       0.87454140       1.01521015
H       -0.04387869       0.27789211       0.92008477
H       -1.43253076       0.81129801       0.14019477
H       -0.90702307       1.59401441       0.43335608
