21
Properties=species:S:1:pos:R:3 pbc="F F F"
H        0.00000000       0.00000000       0.00000000
H       -0.78841746      -0.36585209      -0.54577839
H       -0.39263234       0.79461014       0.40310720
H       -0.54166240       0.61471456      -0.61810338
H       -1.20621133       0.60983920       0.90511286
H       -1.62295055       0.13312763      -0.49445045
H       -1.29287541       0.94609094       0.06446764
H       -1.21422708      -0.41611421       0.87904906
H       -1.40329814      -0.63369346       0.08550644
H       -0.33475274       0.01689900       0.91417503
H       -1.71916580       0.17996734       0.51706719
H       -0.68783528       0.53203881      -0.63499677
H        0.16794357       1.32230735      -0.19300619
H       -1.24900949       0.97395957       1.51374435
H       -1.42104650       0.81424952      -0.06853837
H        0.46085247       1.07775676       0.77654064
H       -0.45809972      -0.68437010       0.31374484
H        0.86710018       0.15148079       0.41623518
H        0.85195857       0.15148079       0.44640908
H       -0.45861822       1.70620275       0.86997819
H        0.92219555       1.23080897       0.97839653
