21
Properties=species:S:1:pos:R:3 pbc="F F F"
H        0.00000000       0.00000000       0.00000000
H        0.54628479      -0.64623839      -0.66938484
H        0.40954578       0.30082351      -0.84948802
H        1.39940429       0.56501538      -0.78860658
H        0.48994064       0.83173102      -0.12744656
H        1.74041224       0.30082351       0.14265060
H        0.63333935      -0.72254789       0.36073494
H        1.57981420       1.24788547      -0.01654422
H        1.00531256      -0.10853845       0.63266301
H        0.68130410       1.36589360       0.33956611
H        0.43942779       0.63408238       0.93455279
H        0.07225904      -0.06273437       0.27655774
H        1.13397479      -0.25084341      -0.27715296
H        0.63502955       0.31699911       0.20880449
H       -0.22294950      -0.03152382      -0.95874357
H        0.71611011       1.23007298      -0.57063979
H        0.69321847      -1.68496823      -1.09355664
H        0.96479547      -2.67435098      -1.06725979
H        1.35330248       0.81639588       0.88669056
H        2.04329348       1.78190982      -0.08620442
H        0.75075066       0.27420986      -0.38836539
