21
Properties=species:S:1:pos:R:3 pbc="F F F"
H        0.00000000       0.00000000       0.00000000
H       -0.53245163       0.67024595      -0.56620628
H       -1.15138817       0.08442509      -1.13809371
H       -0.73155493      -0.26839936      -0.40078619
H        0.41660678       0.61956930      -0.77782136
H        0.69177574      -0.29886132      -0.60803288
H        0.25389248      -0.94172889      -1.27758753
H       -0.28865564      -0.81734198      -0.41532695
H       -0.56011915      -0.29402912      -1.81280422
H       -0.19893277       0.63646829      -1.53206694
H       -0.84827989      -0.72838700      -1.27103233
H        0.51757979      -0.06188124      -1.60069430
H        0.02512515      -1.04143763      -1.42268443
H       -1.14652228       0.21710011      -1.23151457
H       -0.88767391       1.16416550      -1.97391784
H       -0.31818080       1.58207405      -2.14205098
H       -0.35203713       1.60307455      -2.10013580
H       -0.36911726       1.55993414      -2.16350889
H       -0.18327887      -0.12316316      -1.82909799
H       -0.25624803       1.55993414      -2.18352413
H       -0.22300175       1.05429411      -1.80564010
