12
Properties=species:S:1:pos:R:3 pbc="F F F"
H        0.00000000       0.00000000       0.00000000
H        0.75986940       0.40936196      -0.45064643
H        0.29971796       0.87291002       0.34100226
H       -0.03761250       0.21182740       0.97127116
H        1.54127073      -0.06029907      -0.10875243
H        0.78787285      -0.25172070       1.36752987
H        1.29716909       0.75645244       0.28345039
H        0.33057573      -0.66108263       0.61164427
H        0.80919367       0.71324110       1.21750915
H        0.74829102      -0.55577880      -0.28148061
H        1.59120619       0.04737252       0.88245690
H        1.26184666      -0.71526879       0.58407867
