21
Properties=species:S:1:pos:R:3 pbc="F F F"
H        0.00000000       0.00000000       0.00000000
H        0.45279220       0.75366068      -0.41837266
H        0.98757720      -0.06000012      -0.42306572
H        0.03269412       0.28314662       0.93103164
H       -0.14725333       0.96864080       0.26336592
H        0.72562641       1.46274066       0.19058391
H        1.35322464       1.02296424       0.79123187
H        0.37861949       1.11191928       1.10035300
H        1.51264691       0.09386653       0.54746377
H        0.95955437       0.33382326       1.22500932
H        1.53069413       0.05800798       0.37640852
H        0.70484149      -0.21148092      -1.34239960
H        0.73514748      -0.14439332      -1.35966492
H        1.56724954       0.70828509       0.17207175
H        1.49965417       1.62671566       0.48826304
H        1.47041988       0.39297658       1.08818603
H        0.65766144       0.66034776       0.03536206
H        1.59421110       0.74401921       0.19975257
H        1.32399011       0.90886062       0.16431262
H        1.21011019       0.16336304       0.12234944
H        1.24249959       0.19821800       0.10663348
