21
Properties=species:S:1:pos:R:3 pbc="F F F"
H        0.00000000       0.00000000       0.00000000
H       -0.96783787       0.05067664       0.09371616
H        0.22264534      -0.93864530      -0.13204154
H       -0.16570020      -1.46459687       0.65908849
H       -0.65891194      -0.61471456      -0.49120769
H        0.38524127      -0.50715572       0.78485715
H       -0.31511146       0.15392691       0.92816353
H       -0.38982517      -0.70191431       1.42880201
H       -1.22590840      -0.38081294       0.98844528
H       -1.02845049      -1.28773522       0.87898809
H       -0.77693504      -1.40574336      -0.05421871
H       -1.39633632      -0.61134434       0.14224035
H        0.37960178      -0.54294902       0.79076338
H       -0.79275775      -0.47988170      -1.17586315
H       -1.53523135      -0.59151101      -0.64237493
H       -1.77183473      -0.15072295       1.38070881
H       -0.70913184      -0.97065198       0.19854248
H       -2.12496781      -0.64577103       0.55393904
H       -0.01590544      -0.77833354      -0.57523775
H       -0.71028757       0.71175927      -0.57314104
H       -0.91487914      -0.64577103       1.65251446
