21
Properties=species:S:1:pos:R:3 pbc="F F F"
H        0.00000000       0.00000000       0.00000000
H        0.83968246      -0.37845421      -0.31585881
H        0.26962507      -0.96807545       0.20846131
H       -0.61031401      -0.77136850       0.29296994
H        0.70230323      -1.37670851      -0.51063848
H        0.20604861       0.12052551      -0.86137533
H       -0.96761304      -1.03556037      -0.63215917
H       -0.76731408      -0.08849847      -0.52720660
H       -0.23370588      -1.67516029      -0.21375909
H        0.01339257      -1.46110177      -1.19353008
H        0.67326409      -0.75202185      -1.29270768
H       -0.32321090      -0.55726326      -1.44247627
H       -0.89735675      -1.04173362      -0.79504120
H       -0.50835496      -0.68697530       1.25761652
H       -0.83231676      -0.74335402      -0.16245496
H       -0.82526517      -0.78384209      -0.20339760
H       -1.11169934       0.70866627      -0.51813817
H       -0.51071262      -0.57711780      -1.12797225
H       -1.04815102       0.54392415      -0.00249022
H       -1.04249763       0.62442374      -0.01305318
H       -0.46371233      -1.06829309      -1.20429611
