8
Properties=species:S:1:pos:R:3 pbc="F F F"
H        0.00000000       0.00000000       0.00000000
H        0.79402828      -0.31375703       0.65969908
H        1.40956783      -0.33065602      -0.09454644
H        0.52462679      -1.29307616       0.51245517
H        0.71255213      -0.11281753      -0.73857772
H       -0.18855435      -0.96072400      -0.14651275
H        1.21520245      -1.34375274      -0.17208707
H        0.53625453      -1.15898180      -0.84510291
