8
Properties=species:S:1:pos:R:3 pbc="F F F"
H        0.00000000       0.00000000       0.00000000
H        0.24483983      -0.86484438      -0.37437752
H       -0.05110259       0.33235219      -0.96966726
H        1.27394140      -0.55108738      -0.45582393
H        1.16245830      -0.20399690      -1.35868633
H        0.12450358      -0.56639254      -1.34893870
H        0.98192471       0.29845181      -0.00861700
H        0.93082213       0.63080400      -0.97828424
