8
Properties=species:S:1:pos:R:3 pbc="F F F"
H        0.00000000       0.00000000       0.00000000
H       -0.93989587      -0.24138860      -0.47165081
H       -0.40700665       0.55622131       0.76045203
H       -0.18427984      -0.83756196       0.56378603
H       -0.65782338      -0.25174111       1.26084709
H       -1.25514460       0.36146271       0.21634263
H       -1.56836033      -0.37612802       0.80392897
H       -1.17479300      -1.07652605       0.16982880
