8
Properties=species:S:1:pos:R:3 pbc="F F F"
H        0.00000000       0.00000000       0.00000000
H        0.44047090       0.80291802      -0.09821343
H       -0.44328880       0.34709048      -0.79440808
H        0.65238816      -0.49897972      -0.52294344
H       -0.07287440       1.06710982      -0.94674343
H        1.12178612       0.30786994      -0.68478036
H        0.19520307      -0.14795759      -1.42732143
H        0.59500992       0.54115826      -1.52174723
