8
Properties=species:S:1:pos:R:3 pbc="F F F"
H        0.00000000       0.00000000       0.00000000
H        0.12529835      -0.08895500      -1.01474690
H        0.43220654       0.89036417      -1.00666535
H        0.35390621       0.90665692      -0.02800927
H       -0.56192529       1.18980360      -0.19871849
H       -0.45908710       1.26881838      -1.10878789
H       -0.92554998       0.28314662      -0.10604757
H       -0.83212334       0.31315309      -1.13831115
