8
Properties=species:S:1:pos:R:3 pbc="F F F"
H        0.00000000       0.00000000       0.00000000
H       -0.43620220       0.58582085      -0.72101700
H       -1.34996605       0.50142765      -0.39547989
H       -0.99072462      -0.15965497       0.22256246
H        0.09474161       0.77136850       0.67032725
H       -1.22085690       1.28716481       0.33258280
H       -0.28051209       1.41155171      -0.05933991
H       -0.89229363       0.58775353       0.91899323
