10
Properties=species:S:1:pos:R:3 pbc="F F F"
H        0.00000000       0.00000000       0.00000000
H       -0.49101692      -0.19475858      -0.87994057
H        0.07288510       0.55264992      -1.30032015
H       -0.64445859       0.66108263       0.30936041
H       -0.06615096       1.40849113      -0.09097037
H       -1.12422180       0.46632403      -0.54815400
H       -0.65927428       1.22289586      -1.03948140
H       -0.49684799       1.24882221      -1.00875556
H       -1.05675614       1.21373260      -0.27561724
H        0.50114286       0.73181123      -0.40170777
