8
Properties=species:S:1:pos:R:3 pbc="F F F"
H        0.00000000       0.00000000       0.00000000
H        0.21426670       0.05341591       1.00227761
H       -0.73158455       0.35186774       1.26612568
H       -0.52472371       1.28096545       1.06107211
H       -0.92177200       0.25064358       0.18861330
H        0.38584459       1.03032184       0.82420909
H        0.21787429       0.93864530      -0.13977383
H       -0.69671071       1.18928885       0.08107214
