8
Properties=species:S:1:pos:R:3 pbc="F F F"
H        0.00000000       0.00000000       0.00000000
H       -0.26684549      -0.92909771       0.11675546
H        0.49617919      -1.01805270       0.79734665
H        0.73845983      -0.07940739       0.70620924
H       -0.17619112      -0.78843915       1.53796768
H       -0.88172615      -0.66125631       0.74804032
H       -0.69139612       0.28580558       0.62593710
H        0.02200854       0.19685058       1.35837471
