21
Properties=species:S:1:pos:R:3 pbc="F F F"
H        0.00000000       0.00000000       0.00000000
H        0.80713278      -0.08439321       0.53802919
H        1.22742236      -0.64061451      -0.21516299
H        0.39559987      -0.43148959      -0.84299546
H       -0.03523079      -1.26322055      -0.57715839
H        0.39669645      -0.96108258       0.87903017
H        0.77824253      -1.46006227       0.13505250
H       -0.43770903      -0.79355955       0.17483270
H       -0.44524133      -0.73146904       0.33889842
H        0.92472970      -2.31725836      -0.82686961
H        1.13979602      -3.14898944      -1.28516090
H        0.89538682      -2.81623816       0.00872546
H        1.14714837      -3.71786213      -0.52776074
H        0.14996582      -3.94747567      -0.60668093
H       -0.05020726      -2.58145022      -1.00859594
H        0.13449901      -3.42152405      -1.48785043
H       -0.02148992      -3.10914755      -0.19081122
H        0.89316487      -2.31725836      -0.92638803
H       -0.14744419      -1.41902602      -1.15115857
H        0.71232599      -1.79748023      -1.40733933
H        0.42057365      -1.04862857      -1.26728904
