7
Properties=species:S:1:pos:R:3 pbc="F F F"
H        0.00000000       0.00000000       0.00000000
H       -0.02074104      -0.97334045      -0.01546210
H        0.81283760      -1.13300943      -0.59250307
H        0.73778123      -0.01689900      -0.63518041
H        0.67908740      -0.98877251      -0.64400202
H        1.34879971      -0.59383142      -0.25816151
H        0.70045346      -0.55622131       0.50329578
