16
Properties=species:S:1:pos:R:3 pbc="F F F"
H        0.00000000       0.00000000       0.00000000
H       -0.77018702      -0.01689900       0.59547228
H       -1.05921221      -0.85446095       0.07751650
H       -0.21197683      -0.65976655       1.16857493
H       -0.54940164      -1.41342723       0.65262830
H        0.27330744      -1.43123972       0.03931236
H        0.59374958      -0.61471456       0.56825286
H       -0.31459087      -0.69479203      -0.61050153
H       -0.28971326      -0.81652516      -0.55940092
H        0.33575296      -2.00215602       0.23035833
H        0.81910175      -1.85067523       1.06191623
H        1.17209935      -2.05283260      -0.26564330
H        0.69536251      -0.92157751       0.79823661
H        1.06626534      -1.13440204      -0.57116783
H        1.63030124      -1.72048044       0.59046239
H        1.47948241      -0.81382352       0.26907814
