8
Properties=species:S:1:pos:R:3 pbc="F F F"
H        0.00000000       0.00000000       0.00000000
H        0.36329272       0.89468008       0.34769225
H        0.45983347       0.19475858      -0.89663047
H        1.37067711      -0.20415260      -0.64254814
H        0.77106321       1.07460618      -0.61902452
H        0.88077819      -0.49504808       0.18022506
H        1.23680449       0.35375103       0.49778807
H        1.63651133       0.60439461      -0.35395902
