8
Properties=species:S:1:pos:R:3 pbc="F F F"
H        0.00000000       0.00000000       0.00000000
H        0.68725604      -0.43977645       0.53135377
H        1.07314706       0.45401433       0.51441115
H        0.37315118       0.83246851      -0.04669416
H        1.62804568       0.29434538      -0.33406824
H        0.87039769       0.62669754      -0.94138658
H        1.21178436      -0.58550227      -0.30846608
H        0.55489862      -0.15966894      -0.84847939
