21
Properties=species:S:1:pos:R:3 pbc="F F F"
H        0.00000000       0.00000000       0.00000000
H        0.54069358       0.79439902       0.36042264
H       -0.29010814       1.35062027       0.59217727
H       -0.32159230       0.97216606       1.48874974
H        0.50801343       0.36290944       1.29105294
H       -0.86908346       0.52595156       0.14626260
H       -0.02223706      -0.39075124       0.97658378
H       -0.36843383       1.27961230       0.50599360
H       -0.12848127       1.00437355       1.15812576
H       -0.09583062       1.13212991       1.06052423
H       -1.14977789       0.93804622      -0.28293914
H       -0.41840899       0.41034901      -0.64994884
H       -0.66872203       1.81473565      -0.05201730
H       -1.55715847       1.46925402      -0.99677610
H       -1.54840922       1.42445254      -0.98747206
H       -1.56483746       1.51447177      -1.00494170
H        0.48888332       1.28583670      -0.92028958
H        0.47883701       1.28583670      -0.95196396
H        0.47883701       1.28583670      -0.95196396
H        0.47883701       1.28583670      -0.95196396
H        0.47883701       1.28583670      -0.95196396
