8
Properties=species:S:1:pos:R:3 pbc="F F F"
H        0.00000000       0.00000000       0.00000000
H       -0.78841746      -0.36585209      -0.54577839
H       -0.41290337       0.86484438      -0.17209253
H        0.61826962       0.08895500      -0.81434244
H        0.22574216       0.95379937      -1.02888203
H       -1.13132095       0.51399553      -0.78315181
H       -0.09002304      -0.32040697      -1.34236264
H       -0.48250902       0.49618307      -1.57816720
