9
Properties=species:S:1:pos:R:3 pbc="F F F"
H        0.00000000       0.00000000       0.00000000
H        0.02715597      -1.02162731       0.09414954
H        0.47438604      -0.01689900      -0.85013717
H       -0.75050521      -1.00381482      -0.57536495
H        0.55263126      -0.98613524      -0.90033418
H       -0.77153206      -0.03457856      -0.66591841
H        0.58827251      -1.03852630      -0.70141542
H       -0.15673411      -0.08525520      -1.41925526
H       -0.21606663      -1.05712867      -1.41769290
