12
Properties=species:S:1:pos:R:3 pbc="F F F"
H        0.00000000       0.00000000       0.00000000
H        0.05739931      -0.52769721       0.81627315
H        0.36690205       0.83756196       0.46604359
H        0.25835395       0.34899217       1.31059778
H       -0.66946954       0.59963572       1.46674609
H       -0.99411505      -0.23792624       0.97034001
H       -0.99564397       0.22961354       0.09640864
H       -0.92902946      -0.29808366       0.98228443
H       -0.57389158       1.05540049       0.59060133
H       -0.99557489      -0.70374244       1.19140530
H       -0.96790451      -0.78086090       1.22263622
H       -0.98805583       0.34247828       0.18005574
