10
Properties=species:S:1:pos:R:3 pbc="F F F"
H        0.00000000       0.00000000       0.00000000
H        0.97460508       0.08895500       0.30912116
H       -0.31766176       0.08895500       0.97185487
H        0.01959673       0.96046287      -0.15870699
H        0.67862833       0.14237091       1.21243048
H        0.94965768       1.09487808       0.10708074
H       -0.37790421       1.00580013       0.90779334
H       -0.09207132       1.05647671      -0.02161098
H        0.00535676       1.26151240       0.43816823
H        0.64079797       1.16677809       1.16260290
