8
Properties=species:S:1:pos:R:3 pbc="F F F"
H        0.00000000       0.00000000       0.00000000
H        0.46564069       0.84879911      -0.10382564
H       -0.20836653       0.31530851      -0.89734328
H        0.75531149      -0.52769721      -0.31480339
H        0.16617256       0.97318602      -1.07756615
H        1.24964428       0.29257780      -0.46338093
H        0.54848468      -0.24091280      -1.31100738
H        0.95017618       0.41696471      -1.43712139
