8
Properties=species:S:1:pos:R:3 pbc="F F F"
H        0.00000000       0.00000000       0.00000000
H       -0.67230010      -0.60990006       0.35227177
H       -1.21570075       0.22766191       0.59003103
H       -0.22012398      -0.62771249       1.27343595
H       -0.48114210       0.84237647       0.22142071
H        0.53672719      -0.07149118       0.85977185
H       -0.76618958       0.12594819       1.55956340
H        0.03828558       0.72311896       1.12094522
