9
Properties=species:S:1:pos:R:3 pbc="F F F"
H        0.00000000       0.00000000       0.00000000
H        0.42330277      -0.73181123      -0.48304045
H        0.16975430      -1.36768556       0.20937407
H       -0.38951159      -0.89148015      -1.08897972
H       -0.71443534      -1.52735448      -0.42705131
H       -0.33445251      -0.60990006       0.68134016
H       -0.83887112      -0.18477097      -0.45849293
H        0.19701391      -1.39658880       0.13534343
H       -1.08467853      -0.84585357       0.21278155
