9
Properties=species:S:1:pos:R:3 pbc="F F F"
H        0.00000000       0.00000000       0.00000000
H        0.88292891      -0.28314662      -0.29719594
H        0.88292891      -0.83936793       0.56532466
H        0.00000000      -0.60990006       0.75900126
H        0.37055475       0.02597433       1.39650714
H        1.25790071      -0.13028800       1.11728740
H        1.29670751       0.50558639       0.38093239
H        0.39043641       0.75623000       0.63373935
H        0.94704306      -0.25401527      -0.30087936
