8
Properties=species:S:1:pos:R:3 pbc="F F F"
H        0.00000000       0.00000000       0.00000000
H       -0.12270200      -0.91159266      -0.45526573
H       -0.89749557       0.36585209      -0.33760604
H       -0.88014185      -0.59628415      -0.97959995
H       -0.95595962      -0.48294702      -0.81108570
H       -0.36004472       0.00929993      -0.20782700
H       -0.88599789      -0.25470915      -0.55577350
H       -0.54300237      -0.14337811      -0.11887184
