13
Properties=species:S:1:pos:R:3 pbc="F F F"
H        0.00000000       0.00000000       0.00000000
H        0.85755634      -0.19475858       0.52914101
H       -0.30458406      -0.91843063       0.10851098
H       -0.81405985      -0.75876170       0.98501778
H       -0.55565047       0.22055745       0.81923926
H        0.59955806      -1.12385631       0.66432691
H       -0.01334894      -1.00940526       1.47908330
H        0.37420750      -0.04327779       1.36069882
H       -0.48616713       0.18633576       0.85044700
H       -0.53178930       0.01561669       0.68529356
H        1.18183911      -0.26111627       1.85903454
H        1.19176412      -0.29392135       1.82635951
H        1.18183911      -0.26111627       1.85903454
