8
Properties=species:S:1:pos:R:3 pbc="F F F"
H        0.00000000       0.00000000       0.00000000
H        0.75986940       0.40936196      -0.45064643
H        0.07785529       1.07960796      -0.82340765
H       -0.07553467       0.52382916      -1.60803640
H        0.60647941      -0.14641684      -1.23527515
H       -0.67020655       0.58455992      -0.32475477
H       -0.09797382      -0.55577880      -0.79345572
H       -0.75080293       0.05412126      -1.18062115
