21
Properties=species:S:1:pos:R:3 pbc="F F F"
H        0.00000000       0.00000000       0.00000000
H        0.69739223       0.29845181      -0.69129914
H        0.02887994       0.96869779      -1.08776557
H        0.47580057      -0.47291669      -1.33099580
H       -0.75685120       0.55622131      -0.41366416
H       -0.07584292       0.92207336      -1.08872259
H       -0.37621969       0.74753660      -0.91500592
H        0.04153126       0.88857353      -0.96634072
H       -0.73240680       0.48363045      -1.80629611
H        0.30534428       0.92345560      -1.70581031
H        0.28903371       0.92345560      -1.59728873
H        0.28106946       0.92345560      -1.56157053
H        0.40514311       0.91295081      -2.19121790
H        0.40514311       0.91295081      -2.19121790
H        0.40514311       0.91295081      -2.19121790
H        0.16251877       0.91295081      -1.00548887
H        0.40514311       0.93396038      -2.19121790
H        0.16251877       0.93396038      -1.00548887
H        0.40514311       0.91295081      -2.19121790
H        0.19929802       1.07064378      -0.96238035
H        0.08155690      -0.34850872      -1.55483472
