8
Properties=species:S:1:pos:R:3 pbc="F F F"
H        0.00000000       0.00000000       0.00000000
H       -0.47549847       0.19475858       0.88842231
H        0.59898126       0.81647241       0.16708747
H       -0.63862538       0.58582085      -0.54981393
H        0.14882961       0.92656982       1.03917968
H       -1.11676574       0.80947316       0.37439287
H        0.01254004       1.42095828      -0.34328002
H       -0.49243763       1.54128432       0.52515024
