18
Properties=species:S:1:pos:R:3 pbc="F F F"
H        0.00000000       0.00000000       0.00000000
H        0.21426670       0.05341591       1.00227761
H       -0.73158455       0.35186774       1.26612568
H       -0.47929662       1.27029836       1.06389594
H       -0.93658578       0.18477097       0.19164450
H        0.45128483       0.93794620       0.78661585
H       -1.01672816       0.26747453       0.33896238
H       -0.86123598       1.21962178       0.16968387
H        0.16545200       0.88726956      -0.14278853
H       -0.80614543       1.15146136       0.05602007
H       -0.01864338      -1.12998366      -0.35375667
H        0.25520810      -0.84683704      -1.24420261
H        1.05086434      -0.38328895      -0.79101586
H        1.61195409      -1.24093139      -0.73668534
H        1.23524594      -1.47054493       0.18997127
H        0.79082263      -0.60570055       0.13905017
H        0.89406097      -1.71059239      -1.19723821
H        0.46191150      -1.99649644      -0.23270199
