8
Properties=species:S:1:pos:R:3 pbc="F F F"
H        0.00000000       0.00000000       0.00000000
H       -0.37664786      -0.36585209      -0.88182342
H       -0.53625453       0.77460212      -0.24593407
H       -1.31878746       0.36524016       0.16409746
H       -0.80580151      -0.34709048       0.42222381
H       -1.05533564      -0.71294260      -0.50363189
H       -0.88864022       0.39614791      -1.07095385
H       -1.54898143       0.10071820      -0.70937669
