21
Properties=species:S:1:pos:R:3 pbc="F F F"
H        0.00000000       0.00000000       0.00000000
H       -0.58002573       0.67024595       0.51736289
H        0.13151044       1.33132863       0.58626121
H       -0.30130181       0.29179174       1.37009168
H        0.73666722       0.63587439      -0.03234354
H        0.51430613       0.89155221       1.36608493
H        0.13963157       1.27874196       0.50019157
H        0.16840607       1.55934024       0.29132435
H        0.40837798       1.12449372       0.53244823
H        0.80980128       1.07569957       1.00769305
H        0.77325678       1.07569957       1.00961900
H        0.67243731       1.09942245       0.88106847
H        0.42001611       0.61817765       1.89779830
H        1.65088451      -0.17185789      -0.23618996
H        1.65088451      -0.17185789      -0.23618996
H        1.65088451      -0.17185789      -0.23618996
H        1.65088451      -0.17185789      -0.23618996
H        1.65088451      -0.17185789      -0.23618996
H        1.65088451      -0.17185789      -0.23618996
H        1.65088451      -0.17185789      -0.23618996
H        1.65088451      -0.17185789      -0.23618996
