8
Properties=species:S:1:pos:R:3 pbc="F F F"
H        0.00000000       0.00000000       0.00000000
H       -0.51304650      -0.77136850      -0.44169885
H       -0.18674591      -1.45686269       0.16796207
H       -1.02509344      -1.14310563       0.77033842
H        0.29270253      -0.67024595       0.72001350
H       -1.28940821      -0.58659756       0.11613899
H       -0.76408219       0.25064358       0.54901469
H       -0.50275791      -0.48547497       1.25026190
