9
Properties=species:S:1:pos:R:3 pbc="F F F"
H        0.00000000       0.00000000       0.00000000
H        0.65604281      -0.46966103       0.54505712
H       -0.06164205      -1.02588236       1.02346087
H        0.87915611      -1.07956111      -0.18041050
H        0.16169217      -0.66108263      -0.69633782
H        0.19830710      -1.72242868       0.23969635
H       -0.52837610      -1.35657656      -0.38592950
H       -0.69942653      -0.61471456       0.43156976
H       -0.77693355      -0.71370900       0.37450746
