8
Properties=species:S:1:pos:R:3 pbc="F F F"
H        0.00000000       0.00000000       0.00000000
H        0.73469222      -0.22961354      -0.67884368
H        0.43551055      -0.63587439       0.59502536
H        0.50811565       0.73181123       0.39285091
H        1.19520628      -0.81280434      -0.04965675
H        0.93616021       0.11778629       0.95475638
H        1.28447568       0.54175496      -0.28380859
H        1.68618512      -0.11932766       0.30751216
