10
Properties=species:S:1:pos:R:3 pbc="F F F"
H        0.00000000       0.00000000       0.00000000
H       -0.04850490       0.68549418       0.68978679
H       -0.86867684       0.43977645      -0.00762303
H       -0.91302639      -0.14604440      -0.84915197
H       -1.86432815       0.18630779      -0.65449625
H       -0.62705141      -0.33235219       0.74139905
H       -1.79261220      -0.34138942      -1.46963644
H        0.40549153      -0.26419187       0.90504318
H       -1.40547597       0.64835465      -1.27311826
H       -0.16434848       0.70396829      -0.70579779
