5
Properties=species:S:1:pos:R:3 pbc="F F F"
H        0.00000000       0.00000000       0.00000000
H        0.93511528      -0.39891118      -0.14054634
H        0.23772293      -0.69736302      -0.83184534
H        0.12261641      -0.95513248       0.14891414
H        0.14983898      -0.19838330      -0.00036681
