5
Properties=species:S:1:pos:R:3 pbc="F F F"
H        0.00000000       0.00000000       0.00000000
H       -0.93989587      -0.24138860      -0.47165081
H       -0.81604803       0.36585209       0.50352919
H       -0.66568631      -0.64286757       0.44374192
H       -0.65056324      -0.19036922      -0.34296745
