21
Properties=species:S:1:pos:R:3 pbc="F F F"
H        0.00000000       0.00000000       0.00000000
H        0.45934626      -0.55622131       0.73002923
H       -0.39868912       0.83756196       0.43915913
H       -0.09622493       0.85446095       1.36451888
H       -0.75999737      -0.49897972      -0.34854576
H       -0.00804484      -1.40502048       0.82566696
H       -0.76173073      -1.42283297       0.12927330
H        0.37146232      -0.05724159       1.56150770
H       -1.36589849       0.85446095       0.32833830
H       -0.98681867       0.80104506       1.87177968
H       -0.40561879      -1.45569706       1.71303833
H       -1.73252773       0.83756196       1.23020208
H       -1.65796185      -0.02222842      -0.11824724
H       -1.03967488      -0.09363502       2.37185740
H       -1.37166286      -1.50637364       1.60235107
H       -1.89876962      -0.61407018       1.97786415
H       -1.56854391      -1.52418613       0.59525406
H       -0.20493376      -0.64985633       2.15471911
H       -1.47159696      -1.49458408       1.52361095
H       -1.21924734      -0.20470822       2.54242873
H       -2.04472184      -0.19518331       1.23128080
