21
Properties=species:S:1:pos:R:3 pbc="F F F"
H        0.00000000       0.00000000       0.00000000
H        0.59380746      -0.49897972      -0.58861941
H        0.36755341      -0.26936617      -1.56299639
H       -0.66031027       0.49504808      -0.61011606
H        1.21272659       0.12954500      -1.98711443
H       -0.40965170       0.40087977      -1.56981671
H        1.89200079       0.14644401      -1.28971791
H        2.09678674       1.08508933      -1.13138711
H        0.98810637       1.09762049      -2.24343371
H        1.50536275      -0.25246716      -0.42675507
H        1.48422241       1.64131069      -1.73859930
H        1.52963018       0.43302703       0.26430905
H        0.86928588       2.19708943      -1.22769427
H       -0.49314934       1.43369341      -0.41247207
H        0.05314946       1.24910128      -2.01766849
H        1.04245007       1.93289757      -0.25120014
H        0.19577253       1.48710930       0.34638059
H        0.02973150       1.95818114      -1.35079646
H        0.21761811       1.50140798       0.18099523
H        1.40574324       2.46776080       0.74091566
H        1.41190732       2.43077016       0.75774902
