21
Properties=species:S:1:pos:R:3 pbc="F F F"
H        0.00000000       0.00000000       0.00000000
H       -0.47549847       0.19475858       0.88842231
H        0.72077233       0.72254789      -0.10833093
H       -0.64412612       0.12438690      -0.78927392
H       -1.38477468       0.47790521       0.68567741
H        0.53016609       1.30836868      -0.92918843
H       -0.28382021       0.91012406      -1.43497050
H        0.66312271       1.33726239       0.71150231
H       -0.08499861       1.02195382       1.24904871
H        0.35813567       2.23746634      -0.69414824
H        0.43684518       2.29292774       0.41346514
H        0.31109253       2.27511525      -0.60496151
H        1.00365114       3.16880369       0.85169256
H        1.00365114       3.16880369       0.85169256
H        1.00365114       3.16880369       0.85169256
H        1.00365114       3.16880369       0.85169256
H        1.01868129       3.16880369       0.83153093
H        1.00365114       3.16880369       0.85169256
H        1.00365114       3.16880369       0.85169256
H        1.00365114       3.16880369       0.85169256
H        0.98792261       3.16880369       0.87131441
