21
Properties=species:S:1:pos:R:3 pbc="F F F"
H        0.00000000       0.00000000       0.00000000
H       -0.33100656      -0.58582085      -0.77496612
H       -0.08867799      -0.15433127      -1.67408657
H       -0.93681598       0.04042731      -2.21819592
H       -1.71317768      -0.14434366      -1.66035807
H       -1.35557604      -0.53240496      -0.74798685
H        0.51304656       0.77136850      -0.44169882
H       -1.63817334       0.08230960       0.02375704
H       -0.97151607       1.05804384      -2.34694505
H       -1.84130847       1.35649562      -1.89119136
H       -0.76766121       0.40936196       0.43724135
H        0.07315183       1.60309958      -0.19114536
H       -2.30137324       0.60283494      -1.48082948
H        0.35483390       0.69446784      -1.49830770
H       -1.61221600       1.99237001      -1.19030523
H       -1.92502475       1.64527953      -0.33605713
H       -0.13942543       1.44812846      -1.86676967
H       -2.27025819       0.75148875      -0.50929928
H       -1.05803645       1.52089262       0.19890368
H       -0.31113589       1.80403924      -0.35789829
H       -0.79193270       1.37479305       0.31308642
