21
Properties=species:S:1:pos:R:3 pbc="F F F"
H        0.00000000       0.00000000       0.00000000
H        0.36329272       0.89468008       0.34769225
H        0.26671770      -0.05341591      -0.98961222
H        0.92190301      -0.82478440      -1.16004336
H        0.64920568       0.79538321      -1.27475071
H        0.52771175      -0.79439902       0.37917590
H        1.18700242      -0.38503706       0.96724010
H        1.04346824      -1.26406002      -0.30014324
H        1.76158547      -0.44633019      -1.47590220
H        1.54862332       0.57754469      -1.57749677
H        2.51816678      -0.60599911      -0.80105823
H        1.07150388       0.67684162       0.97939169
H        2.10169601      -1.12643433       0.04736775
H        2.26894665      -0.48356676       0.82971829
H        2.72141790       0.34816426       0.60266280
H        2.82922649       0.28868097      -0.40594634
H        1.89838672       1.08620358       0.66834760
H        1.99035525      -1.14605188      -0.10639097
H        0.74483883       1.39365983      -0.39628541
H        2.05028510       1.11953282       0.69151843
H        2.15475559       1.01732111      -0.95519352
