20
Properties=species:S:1:pos:R:3 pbc="F F F"
H        0.00000000       0.00000000       0.00000000
H       -0.92501378       0.29845181       0.32954502
H       -0.05884610      -0.94706190      -0.21833882
H        0.12658963      -1.06507003      -1.16688955
H        0.25581026      -0.13766313      -1.58705890
H       -1.56760716      -0.49594721       0.23296422
H       -1.17941785       0.96869779      -0.40487504
H       -0.48655695       1.08032703      -1.00138199
H        0.14703967       0.53258282      -0.81747252
H       -2.28762436      -0.33627826      -0.48076195
H       -0.42313766       0.04710785      -2.26007462
H       -1.07082367      -1.29645777      -0.08435658
H       -1.45223212      -1.62880993      -0.97732556
H       -2.17962980      -1.01890993      -1.19406390
H       -1.01125836      -0.72749424      -2.30662036
H       -1.95767212      -0.54924893      -2.01760149
H       -1.89130306       0.44013387      -1.75294948
H       -0.68176734      -1.38037848      -1.60870469
H       -0.93466043       0.78187525      -1.87514031
H       -2.09409165       0.52452707      -0.80436349
