20
Properties=species:S:1:pos:R:3 pbc="F F F"
H        0.00000000       0.00000000       0.00000000
H        0.90784711      -0.05341591       0.47569352
H        0.19060609       0.58582085      -0.82085752
H        1.49215007       0.41624510      -0.14565116
H        1.79878306       1.21064413       0.42726272
H        1.14361799       0.77059186      -0.89628196
H        1.22742498       1.73982811      -0.85605198
H        0.31802100       2.08691859      -0.83210528
H        1.69079375       2.03828001       0.00970763
H       -0.38465434       1.33951008      -0.86295646
H        0.78848416       0.41624510       1.32022405
H        0.19865806       2.55657959       0.01242524
H        0.98547184       2.55871511       0.63883030
H        1.32060385       1.16790330       1.33423603
H       -0.67787278       0.52595156       0.56319398
H       -0.56644285       2.06153154       0.48451832
H       -0.87388724       1.32261109      -0.02127576
H       -0.16942158       1.72917938       1.37065613
H       -0.11951929       0.76333559       1.37607074
H        0.80122954       2.03276348       1.50066185
