21
Properties=species:S:1:pos:R:3 pbc="F F F"
H        0.00000000       0.00000000       0.00000000
H        0.12529835      -0.08895500      -1.01474690
H        0.49320230       0.82263768      -1.30965257
H        0.30129555       0.87984765       0.28835735
H        0.66364008       1.34950864      -0.48377332
H       -0.13324592       1.29229867      -1.88848066
H       -0.94688702      -0.11800810       0.19375233
H        0.11343753       2.20715094      -0.60645413
H       -0.97046506       0.70647782      -1.98440742
H       -1.41346788      -0.20696309      -0.71603507
H       -0.36037710       2.15647435      -1.45556688
H       -0.57631528       2.18933845       0.15331399
H       -0.68468577      -0.22477555      -1.43844986
H       -0.49503598       1.37489569       0.70561904
H       -1.76679659       1.20152593      -1.56714571
H       -1.50793910       2.13592243      -0.27394214
H       -1.32041383       2.13957524      -1.29399729
H       -2.13438511       0.70647788      -0.74670076
H       -2.07423067       0.56440544      -0.86336797
H       -1.33225513       0.78907484       0.60969222
H       -1.91906142       1.30419135       0.02146083
