21
Properties=species:S:1:pos:R:3 pbc="F F F"
H        0.00000000       0.00000000       0.00000000
H       -0.02481474      -0.91159266      -0.47085762
H        0.80713278       0.08439321       0.53802919
H       -0.82827353      -1.38125372      -0.18461773
H        0.73917973      -1.46781397      -0.07053998
H        0.42347676       0.20878011       1.48177695
H        1.30997682      -0.81028688       0.53361642
H       -0.60046154       0.26219600       1.43682063
H       -1.34954643      -0.79543287       0.47750941
H        0.37506923      -2.22147465       0.42693365
H       -0.55425668      -2.19772625       0.37360397
H       -1.01004028      -0.46035188       2.03972483
H       -0.90455586      -2.07333946       1.33023465
H        0.65842855      -2.13251972       1.40933800
H       -0.93230414       0.10252707       0.47884870
H       -1.52967691      -1.07506645       1.40299284
H       -0.29899991      -0.98804909       2.44471645
H        0.65564251      -0.54488057       2.05287719
H       -1.06036091      -1.98665905       1.44843686
H        0.56318629      -0.64095861       2.15450263
H        1.24800682      -1.21964884       1.41489017
