21
Properties=species:S:1:pos:R:3 pbc="F F F"
H        0.00000000       0.00000000       0.00000000
H        0.14728610      -1.02954066      -0.28719354
H        0.76923430       0.61471456      -0.28935874
H        0.99101233      -1.01172817      -0.87125915
H        1.67486238      -1.62644267      -0.41540942
H        1.21545303       1.01362574       0.54435748
H        2.18553138       0.68127358       0.50176597
H        0.79876804       0.61471456       1.39321995
H        1.36179447      -1.82120121       0.54239094
H        0.42269784      -1.57055759       0.60015005
H        1.42288303       0.05849326      -0.85210663
H        1.11729777      -0.92082590      -0.82251668
H        0.99522465      -2.88817120      -0.61791706
H        0.94037235      -2.86279964      -0.57918149
H        0.99522465      -2.88817120      -0.61791706
H        0.94037235      -2.86279964      -0.57918149
H        0.99522465      -2.88817120      -0.61791706
H        0.98853648      -2.88817120      -0.59394097
H        0.98853648      -2.88817120      -0.59394097
H        0.99522465      -2.88817120      -0.61791706
H        2.05644655      -1.09294224      -0.24574959
