21
Properties=species:S:1:pos:R:3 pbc="F F F"
H        0.00000000       0.00000000       0.00000000
H        0.02715597      -1.02162731       0.09414954
H        0.24484433       0.25064358      -0.90845472
H       -0.92737222      -1.32007909       0.32464066
H       -0.53037208       0.66000557      -1.33215654
H       -1.28257370      -1.81905878      -0.43226889
H       -0.88430333       0.34709048       0.21353382
H       -0.59199804      -1.86973536      -1.11681116
H       -2.05785441      -1.34939778      -0.78782380
H       -1.25601685       0.71068221      -0.68490654
H       -1.83353925      -1.08520591      -1.75385141
H        0.23007298      -1.40008152      -0.77972573
H       -0.84440398       0.10422677      -2.06738091
H       -0.19521856      -0.69017226      -2.09588361
H       -0.80296534      -1.54851508      -1.85501277
H       -2.22209883      -0.40883666      -0.28533417
H       -1.43226814      -0.51055193       0.34585157
H        0.41887301      -0.66827029      -1.39362144
H       -2.01132822       0.18298501      -0.99971008
H       -1.71140754      -1.23320651      -1.70212626
H       -1.74998212      -0.17891985      -1.84870982
