21
Properties=species:S:1:pos:R:3 pbc="F F F"
H        0.00000000       0.00000000       0.00000000
H       -0.73394406      -0.63587439       0.07106813
H       -1.03547621      -0.95118290      -0.79940295
H        0.72586513      -0.46966103       0.44788310
H        0.45635483      -1.36345184       0.72458363
H       -0.37413293      -0.51969332      -1.45496821
H        0.24080360       0.03608549      -0.94406325
H        1.19670773      -0.32976660      -1.01971650
H       -0.45555362      -1.41047645       0.59121358
H       -0.56935430      -2.24803829       0.00909406
H        0.36576098      -2.64694953      -0.13145228
H        1.14500272      -1.10436869      -1.60740614
H        0.61819077      -2.56255627      -1.06805146
H        1.39787185      -1.97936547      -1.07489359
H        1.00887108      -2.14796972       0.40286005
H       -0.91200322      -1.91661406      -0.82693416
H       -0.14746010      -2.13106680      -1.59806967
H        0.15368560      -1.20365989      -1.91830635
H       -0.19635558      -2.11137271      -1.53632927
H        0.74216259      -3.42740059      -0.63824213
H       -0.30205536      -0.51816571      -2.43836284
