21
Properties=species:S:1:pos:R:3 pbc="F F F"
H        0.00000000       0.00000000       0.00000000
H       -0.92830116      -0.43148959      -0.07346868
H        0.55375272      -0.58319080      -0.54891467
H        0.07984662      -1.29227066      -1.01868010
H       -0.01793637       0.96807545      -0.34034115
H        0.16455254      -1.17426252      -1.98146772
H        0.74037182      -0.39966041      -2.10986018
H       -1.49685550       0.25400460      -0.46704781
H        0.59686160       1.01875210      -1.09367800
H       -1.76427329      -0.09308589      -1.33657455
H       -0.93971604       1.11955619      -0.61499846
H        1.59337378      -0.66385227      -2.61573958
H        1.02980828      -0.11651379      -1.22435737
H        0.60019612      -2.01182461      -2.38399529
H       -0.85965753      -1.17426252      -0.79181683
H        2.37317228      -0.50418335      -1.96786308
H       -1.38923109       0.52162868      -2.06787014
H       -0.92384535       1.29433954      -1.51917577
H        0.69140911       0.79014313      -1.11702538
H        0.05603468       1.20538449      -1.81114507
H        0.72501737      -2.67290735      -1.68011284
