21
Properties=species:S:1:pos:R:3 pbc="F F F"
H        0.00000000       0.00000000       0.00000000
H       -0.19310522      -0.77460212      -0.55746114
H       -0.54706800      -0.01689900       0.80528992
H       -0.60786545      -1.50641334      -0.06706613
H       -0.43978676       0.70907992      -0.50185072
H       -1.21495569       0.99222654       0.01487154
H       -0.93260229      -0.91068977       0.82900220
H       -0.79929143      -1.04286528       0.82836843
H       -1.36600065      -1.10750222      -0.63224304
H       -1.79069829      -0.54037100      -0.13009852
H       -1.24452972       0.40640569       0.85704917
H       -2.08563709      -0.17941517       0.90878147
H       -1.89175010      -0.41068548      -0.09246725
H       -1.54528999      -0.99588758       1.21655035
H       -1.41525090      -1.20796156      -0.62597495
H       -0.78500092      -0.35471404      -0.48178288
H       -0.78500092      -0.35471404      -0.48178288
H       -0.34292504      -1.69118428       0.85148013
H       -0.34292504      -1.69118428       0.85148013
H       -0.72522002      -0.35471404      -0.50249112
H       -0.88329858      -2.07066894      -1.25323582
