21
Properties=species:S:1:pos:R:3 pbc="F F F"
H        0.00000000       0.00000000       0.00000000
H        0.54628479      -0.64623839      -0.66938484
H        0.80149937      -0.06304759      -1.40614462
H        0.36206064       0.86435932      -1.39457321
H       -0.16381408       0.87984765      -0.38352826
H       -0.18443432       0.88217175      -0.52604002
H        1.77118325       0.02134562      -1.38061059
H        0.99959159       0.99127567      -0.90166450
H        0.76278234       0.97437668       0.04263240
H        1.19714737       1.06333172      -0.88296896
H        1.08752954       1.64656055       0.48632509
H        1.72756398       1.94482541      -0.10505635
H        1.72756398       1.94482541      -0.10505635
H        1.77328265       1.50504899      -0.97256279
H        0.97527540       1.56021166       0.56595898
H        1.99298537       1.00066483      -1.16833305
H        2.16693687      -0.02385246      -2.15229154
H        1.37966323      -0.32230428      -2.73919058
H        2.66523981       0.92175329      -2.52376819
H        1.31905997       0.36318991      -3.42802000
H       -0.55459833       0.39135259       0.46047360
