20
Properties=species:S:1:pos:R:3 pbc="F F F"
H        0.00000000       0.00000000       0.00000000
H        0.15274149      -0.33235219      -0.95892441
H        0.25836679       0.93864530       0.01589089
H        0.46686724       0.45338497      -1.62830424
H       -0.92127651      -0.11800810       0.29220656
H       -0.73011792      -0.64766073      -1.22198486
H       -1.31880760       0.76183957       0.41829377
H       -0.59391618       1.39771390       0.28317529
H       -1.41075361      -0.51691926      -0.51687074
H       -0.99180365      -0.09188193      -1.97742605
H        0.48268190       1.20283723      -0.95013666
H       -1.83869267       0.40316615      -1.67571378
H       -2.07984519       0.14416337      -0.76855934
H       -0.21622595       0.60486579      -2.30542898
H       -1.63550186       1.40908921      -1.66321647
H       -2.02069736       0.93877351      -0.20895493
H       -0.21283194       1.89965391      -1.24001741
H       -0.96010518       2.03041959      -0.47280794
H       -0.69672364       1.49348247      -1.90741765
H       -1.83206034       1.74727297      -0.80080658
