21
Properties=species:S:1:pos:R:3 pbc="F F F"
H        0.00000000       0.00000000       0.00000000
H       -0.93989587      -0.24138860      -0.47165081
H       -0.11793167       0.58582085       0.83440393
H        0.42215070      -0.87668937       0.32638690
H        0.49404460      -0.82327348       1.34878707
H        0.12631029       0.05986929       1.68118882
H       -0.24445125      -1.62409782       0.10200708
H       -1.72164416       0.24593122       0.09005746
H       -1.05147278      -1.20185149      -0.35709718
H       -1.22640514       0.77188277       0.81905484
H       -1.07794631       0.73730165       0.89344960
H       -2.46255875      -0.27980548       0.24166363
H       -3.33356714      -0.07505928      -0.36128789
H       -3.07632494       0.78258312      -0.86288518
H       -3.12663698       0.59781218      -1.81755233
H       -3.25141096      -0.36265069      -1.91756916
H       -0.63341498      -0.18151931       2.40829015
H       -2.16222072       1.00042164      -0.60789329
H       -1.57077360       0.98260921      -1.44646168
H       -2.50298071      -0.83231175      -2.32663083
H       -0.54822719      -2.03345966       0.93158764
