21
Properties=species:S:1:pos:R:3 pbc="F F F"
H        0.00000000       0.00000000       0.00000000
H       -0.21671417       0.94706190      -0.06457304
H       -0.85205346      -0.49504808      -0.28680325
H       -0.07971342       1.40067911       0.90475118
H        0.25561702       0.69159919       1.48165679
H       -1.22185528       1.03601694      -0.25192940
H       -1.62310433       0.08814272      -0.40269101
H       -1.07883120      -1.02274525       0.49943370
H       -2.29420900      -0.06333807       0.28631777
H       -2.33782887       0.75313437       0.90663540
H       -0.39737397      -0.86307633       1.25006390
H       -1.66931653       1.42338037       0.51016903
H       -0.98299569       1.76653123       1.22655416
H        0.23254140      -0.18477097       0.92727828
H       -1.94662273      -0.70743674       0.80859274
H       -2.06060886       0.52352083       1.86775494
H       -1.24785829       1.02250051       2.06401110
H       -1.22203159       1.21030998       2.05529022
H       -2.60085058       1.38116324       1.70678222
H       -1.81770253      -0.39212823       1.72074461
H       -0.87478322      -0.47652143       1.94843268
