20
Properties=species:S:1:pos:R:3 pbc="F F F"
H        0.00000000       0.00000000       0.00000000
H       -0.58002573       0.67024595       0.51736289
H       -0.09747139       1.50197697       0.67041749
H       -0.79824799       0.29179174       1.38754249
H        0.84073150       0.43977645      -0.21869659
H        0.10360470       1.65345776       1.61099339
H       -0.29450449       0.89979708       2.08170080
H        0.43952754       0.34357578       2.53462315
H        0.77680016       1.35049617       0.26946402
H        1.12375808       1.60004187       1.70977521
H        1.32661688       0.82543975       2.26376152
H        1.49020481       1.43945122       1.00190163
H        1.90181494       0.21553969       1.76855445
H        1.35033882      -0.70610815       1.66576040
H        0.16349947      -0.77460212       0.56685138
H       -0.31984937      -0.62312132       1.39840913
H        1.55043125      -0.02988458       0.25438440
H        0.38348109      -0.60622233       2.07153726
H        1.96711493       0.59065211       1.01445973
H        1.19775355      -0.79050136       0.70781654
