21
Properties=species:S:1:pos:R:3 pbc="F F F"
H        0.00000000       0.00000000       0.00000000
H       -0.67230010      -0.60990006       0.35227177
H       -1.41321456       0.00481451       0.70793402
H       -0.29223189      -1.16612136       1.12653911
H       -1.14914644       0.98413366       0.55132639
H       -0.85433912      -0.93650782       1.95396698
H        0.64856172      -0.94828284       1.25109696
H       -1.08452713       1.29944217       1.47027469
H       -0.17544442      -0.58941734       2.55951715
H        0.90084261      -0.21647161       0.66044676
H        0.71237445      -0.60119236       2.15857530
H       -1.48389781      -0.18994407       1.71311903
H       -0.11385077       1.63179433       1.49583483
H        0.81357914      -0.18477097       0.50200558
H       -0.26423192       0.96723467       0.14549190
H       -1.29335093       0.60262543       2.19426584
H        1.02216291       0.36688310       2.01650190
H        0.33493805       1.04597354       2.20908546
H        0.40668422       1.46228278       0.74392551
H        1.14003193       0.51836389       1.06192279
H       -0.47977179       0.41785446       2.69627142
