21
Properties=species:S:1:pos:R:3 pbc="F F F"
H        0.00000000       0.00000000       0.00000000
H       -0.50007260       0.47200781      -0.61275923
H       -0.36002165       0.18477097       0.88560998
H       -1.09509993       0.82064533       0.82743359
H        0.07096046       1.16882455      -1.10438061
H       -0.82729369       1.71532536       1.25305235
H        0.10602814       1.59093845       1.66141760
H       -1.17888451       1.00541627      -0.12487978
H        0.35106352       0.67250782       1.45045853
H       -0.24026915       2.04867220      -0.82677460
H        0.71231133       2.22681284       1.24172091
H        0.96798605       0.33235219      -0.07660951
H        1.38295341       1.64362204       0.84399152
H        1.20234036       0.70497674       1.02942300
H       -0.98510778       1.99479914      -0.31696349
H       -0.78182799       2.38203335       0.49363184
H        0.12505549       2.72912383       0.42185819
H        1.01451576       0.25135946       0.06865215
H        1.02148139       1.07986951      -0.72765672
H        0.64225394       2.23014402       1.07881021
H        2.21023750       1.79510283       0.35336420
