20
Properties=species:S:1:pos:R:3 pbc="F F F"
H        0.00000000       0.00000000       0.00000000
H        0.42017129      -0.49897972       0.72286665
H       -0.10027859      -0.52769721      -0.81212115
H        0.10745376      -1.38534558      -0.54825687
H        1.35267591      -0.10006854       0.87980258
H        0.83585036      -1.64953744      -1.22128356
H        0.49390051      -1.36753309       0.40235633
H        1.51809156       0.69454157       0.34194273
H        0.73662430       0.67024595      -0.24794947
H        1.02073514       0.55223787      -1.17175460
H        1.48559141      -1.63172495       0.39365363
H        1.64005971      -1.76754558      -0.68520314
H        2.01744723      -0.85712284       0.64896107
H        0.96052426      -0.85513842      -1.85902214
H        1.88694692      -0.45622724      -1.66945732
H        2.25856638       0.47670308      -0.25160950
H        1.92308879       0.42328715      -1.22007513
H        0.29277635      -0.13259053      -1.56685603
H        2.56754732      -0.51003236      -0.07559317
H        2.34531832      -1.07072878      -0.95049649
