21
Properties=species:S:1:pos:R:3 pbc="F F F"
H        0.00000000       0.00000000       0.00000000
H        0.83968246      -0.37845421      -0.31585881
H       -0.70310861      -0.74740851       0.01851445
H        0.24331933       0.22961354       0.97025621
H        0.68897873      -1.37670851      -0.50052220
H       -0.97096282      -0.86541659       0.94716352
H        1.17916214       0.01177505       1.12775397
H        1.50691462      -0.33531544       0.27912718
H        1.26242006      -1.99142313       0.08821797
H       -0.77095473      -1.78384721       1.20121634
H        0.77912122      -2.51912022       0.74853522
H       -0.14213699      -2.23597360       0.61007154
H       -0.09363288      -1.58908868       1.94729137
H       -0.31084943      -1.59620762      -0.25302517
H       -0.37160099      -0.29633802       1.60158181
H        1.77642488      -1.22910619       0.55582774
H        1.22930670      -0.64930761       1.84085727
H        1.62895298      -1.44391775       1.44470274
H        0.08029921      -0.64202678       2.09179854
H        0.80257654      -1.98799992       1.64562511
H        1.05662417      -0.41241324       1.87410378
