21
Properties=species:S:1:pos:R:3 pbc="F F F"
H        0.00000000       0.00000000       0.00000000
H       -0.49101692      -0.19475858      -0.87994057
H       -0.08869940       0.47548735      -1.54494798
H        0.67751229       0.66108263      -0.22805223
H        0.62704754       1.02693474      -1.18561649
H        0.49718052      -0.81366080       0.19704963
H        0.35776415      -0.08073395      -2.28292632
H        0.11996560      -1.04880941      -2.03878355
H        1.10547721      -1.46817756      -1.90830529
H        1.45978630       0.80909622      -1.64075768
H        1.17358947      -1.80052972      -0.93968421
H        1.29809403       0.14801359      -2.33709550
H        0.20754302      -1.44953513      -0.48106152
H        0.99945980      -1.70017874      -0.98910326
H        0.54475439      -1.84303498       0.14898521
H        1.79741478      -0.70962882      -2.07546163
H       -0.28583342      -1.06479490      -1.21209764
H        1.61001694       0.26217145      -0.07111631
H        2.05267072       0.34656465      -0.93424803
H        2.19211769      -0.56009227      -1.26072717
H        1.48786831      -0.67647386       0.15710644
