21
Properties=species:S:1:pos:R:3 pbc="F F F"
H        0.00000000       0.00000000       0.00000000
H        0.49089283       0.77460212       0.32722577
H       -0.14838916       1.50641334       0.38912773
H       -0.08112709       1.87226546       1.34565902
H       -0.98101741       0.29845181      -0.04307186
H        0.05014453      -0.66108263       0.71310323
H        0.90290105       0.57984352       1.24681389
H       -0.84382141      -0.87892115       1.03158712
H        0.62948138      -0.28262842       1.39808655
H        0.63458139       1.34631395       1.85991597
H       -1.51455283      -0.25776950       0.63463134
H       -0.84382141      -0.66108263       1.98059034
H        0.05353689      -0.22921251       2.24588299
H       -0.96658635       1.75425732       1.73308253
H       -1.54177547       1.40716684       1.02828002
H        0.14075691       0.84733427       2.53461409
H       -1.74127078       0.50050992       1.32193923
H       -0.00942861       0.70943278       2.49696326
H       -1.45175934       0.09257805       2.08290339
H       -1.10296071       1.17406118       0.21119742
H       -0.86113667       1.05744052       2.47917271
