21
Properties=species:S:1:pos:R:3 pbc="F F F"
H        0.00000000       0.00000000       0.00000000
H        0.85755634      -0.19475858       0.52914101
H       -0.53132933      -0.81366080      -0.06087860
H       -1.43698740      -0.72470582       0.41366798
H       -1.45241463       0.20270109       0.85298824
H        0.84169436      -1.14182043       0.75471383
H       -0.07755053      -1.58826292       0.31613243
H       -1.48379433      -1.43378568       1.07930732
H       -0.05580121      -1.50767255       0.41710779
H        1.24545479      -1.55988455       0.18225217
H        1.24545479      -1.55988455       0.18225217
H       -0.72701484      -0.88893044      -0.90361029
H       -0.24675977      -0.26358205      -1.37966943
H        0.24607965       0.39891118      -0.91303813
H        0.67699260      -2.11610579      -0.46643305
H       -0.68434352      -1.98956442       1.07229161
H       -0.53438532      -2.74322510       1.67026234
H       -0.35941070      -0.82290936       1.32351422
H       -0.32757723      -0.83786511       1.34812641
H       -0.31811678      -0.83786511       1.33543599
H       -0.31811678      -0.83786511       1.33543599
