21
Properties=species:S:1:pos:R:3 pbc="F F F"
H        0.00000000       0.00000000       0.00000000
H       -0.81573808      -0.52769721      -0.06456009
H       -0.09677097       0.68549418       0.68468529
H       -1.55935240      -0.06414911       0.46974775
H       -1.15950799       0.70721936       1.01604342
H       -0.19905168       0.72503179       0.65475368
H       -1.21804428      -0.02512013      -0.78141683
H       -1.21804428      -0.02512013      -0.78141683
H       -1.21804428       0.02512013      -0.78141683
H        0.52900267       0.11800810      -0.80888265
H       -0.85082299       0.28915527       1.64489031
H        0.52900267       0.11800810      -0.80888265
H        0.74306178       1.15812862      -0.61794943
H        1.55151391      -0.41685513      -1.07486498
H       -1.67699456      -0.39067921       0.82966220
H        1.44158912      -1.38228631      -1.01225448
H        1.54154944      -0.41685513      -1.11058545
H        2.03240681      -2.13594699      -1.18829703
H        0.67150813      -1.93806505      -0.79743809
H        0.70379299      -1.99218631      -0.83409792
H        1.49732041      -0.51783240      -0.95086610
