21
Properties=species:S:1:pos:R:3 pbc="F F F"
H        0.00000000       0.00000000       0.00000000
H        0.07742673      -0.40936196      -0.88005048
H        0.42523873       0.99041677      -0.04872289
H       -0.95310330       0.11800810       0.16040275
H        0.77471626       1.07481003      -0.95360082
H        0.55260897       0.32114935      -1.52868760
H       -0.86291796      -0.53374887      -1.27197337
H       -0.28502142       1.62629116       0.14940628
H        0.25374025       1.86920905      -1.34197962
H       -0.44201976       2.15398836      -0.65368032
H       -1.46139312      -0.18044370      -0.67977095
H       -0.24418071       1.52211857      -2.10333633
H       -1.35802603       2.03598022      -0.96201026
H       -1.02840269       0.02247244      -2.11846995
H       -1.20074868       1.60651183      -1.94235051
H       -1.63951063       0.67910492      -1.91536450
H       -0.12290543       0.48602054      -2.25456476
H       -1.76999545       1.43447745      -0.39914840
H       -1.94241691       0.57321697      -1.06535184
H       -1.93570280       0.57683504      -0.93795681
H       -1.62614095       2.35109186      -1.13500059
