21
Properties=species:S:1:pos:R:3 pbc="F F F"
H        0.00000000       0.00000000       0.00000000
H       -0.13959605      -0.55577880       0.78719991
H        0.70808405      -0.68016571       1.35225761
H        0.58444917      -0.27080375       2.22701359
H        1.34247518      -0.12849879       0.97602707
H        0.95708466       0.36585209       0.05886565
H        1.62881315       0.66590023       1.55934906
H       -0.88646913      -0.22342661       1.40772104
H        1.14034569       0.58683866       2.32056832
H       -0.58177835       0.77460212       0.09791052
H        0.55856735       1.36144078       2.41847897
H        0.93063796       1.33128321       0.18257548
H       -1.16170371       0.67125344       0.98686779
H        0.05892003       1.69806790       0.22901040
H        0.72024870       1.94726157       1.59143794
H        1.45808220       1.54835033       1.00000286
H       -0.33503073       0.04450476       2.28356624
H       -0.15917987       2.03621650       1.06988597
H       -0.36176342       1.04613233       2.37807155
H        0.93308592       0.24995542       0.17775780
H        0.34715319       2.34093547      -0.51729172
