20
Properties=species:S:1:pos:R:3 pbc="F F F"
H        0.00000000       0.00000000       0.00000000
H       -0.33764970       0.29845181       0.92208624
H       -1.21698689      -0.11091015       1.00723279
H       -0.59302652       1.28783464       0.82602251
H       -1.27963865      -0.77199280       0.29511940
H       -0.52093583      -0.72131616      -0.31304413
H       -0.83480006      -0.35546407      -1.21911550
H       -2.07155561      -0.52134919      -0.21292222
H       -0.44445559       0.52438354      -1.36594927
H        0.11604610       0.74222207      -0.60015219
H       -2.44979906       0.27326095       0.20371595
H       -0.26493245       1.51682425      -0.14969927
H       -1.78003049      -0.25715733      -1.16083550
H       -2.39131737       0.98234087      -0.46099940
H       -1.96976709       0.58590662       0.97418177
H       -1.60985518       1.41222155       0.88856256
H       -1.04905057       1.79997087      -0.65273774
H       -1.85689664       1.71415210      -0.10475820
H       -1.19723582       1.22120023      -1.39900029
H       -2.01471066       0.73222548      -1.30001438
