21
Properties=species:S:1:pos:R:3 pbc="F F F"
H        0.00000000       0.00000000       0.00000000
H        0.59380746      -0.49897972      -0.58861941
H        0.36755341      -0.26936617      -1.56299639
H       -0.66031027       0.49504808      -0.61011606
H       -0.47511089       0.31645468      -1.57039118
H        1.55135465      -0.16662753      -0.42746896
H       -0.18239316       1.13011551      -2.01797724
H       -0.28082418       1.87752402      -1.32154655
H        1.44935286       0.55592036       0.29422629
H        0.79748690       1.04116046      -2.30994654
H        0.66039187       2.27643514      -1.23040819
H        1.31393933       1.70224309      -1.81567168
H        1.09878242       0.16131282      -2.02158928
H       -0.53438359       1.50097108      -0.45016241
H        0.50984871       0.67392844       0.52108955
H        1.83477664       0.28569973      -1.31719995
H        0.20161062       1.62535799       0.25422686
H        1.95238471       1.29807937      -1.19645417
H        0.95830858       2.12040615      -0.23122081
H        1.77988136       1.50569153      -0.20958687
H        1.77425992       1.41356277      -0.16643506
