21
Properties=species:S:1:pos:R:3 pbc="F F F"
H        0.00000000       0.00000000       0.00000000
H        0.05739931      -0.52769721       0.81627315
H        0.33734825       0.95566529       0.16193771
H        0.21492414       0.16911954       1.55312884
H        0.32345316       1.04896712       1.15044975
H       -0.59689456       0.18693200       2.18078876
H       -0.93162382      -0.05341591      -0.42725614
H       -0.48010537       1.51188660      -0.11321917
H       -1.23112416      -0.44894239       1.80465388
H       -0.82494104       1.97543466       0.73503518
H       -1.22714770       0.89717203      -0.45582354
H       -0.82797527      -0.85830438       1.01855302
H       -0.41746131       1.66368175       1.50611198
H       -2.08317757       0.04610568       1.51785064
H       -1.52674150      -0.52307695       0.18373838
H       -2.03428054       0.98156524       0.08220565
H       -1.00378489      -0.82152879       1.01486218
H       -0.81162912      -0.46144322      -0.75815856
H       -0.81162912      -0.46144322      -0.75815856
H       -0.81162912      -0.46144322      -0.75815856
H       -0.81162912      -0.46144322      -0.75815856
