21
Properties=species:S:1:pos:R:3 pbc="F F F"
H        0.00000000       0.00000000       0.00000000
H        0.05110265      -0.33235219      -0.96966726
H        0.67273659      -1.14882457      -0.95329815
H        0.97483635      -1.19950116      -0.02905327
H        1.41866446      -0.96405363      -1.55122137
H        2.27251101      -0.94624120      -0.98205310
H        0.58798158      -0.58582085       0.60366833
H        1.88821936      -1.08787191      -0.06915556
H        0.47049561       0.42724946      -1.61094892
H        0.71669024       1.28559232      -1.00533915
H        1.31814671      -0.07026285      -1.92417598
H        2.67700624      -0.00413752      -1.02839923
H        1.68811893       1.33626890      -1.04798996
H        0.47157907       1.09083378      -0.02793777
H        2.64552212       0.37431669      -0.13182682
H        1.33856738       1.21522069       0.50702304
H        2.09017825       0.51555800      -1.58638155
H        1.36555433      -0.02959955       0.97692752
H        0.07581204       0.14873010       0.06762859
H        2.23116183      -0.26155770       0.47811592
H        0.65435112       0.35763472       1.41576397
