20
Properties=species:S:1:pos:R:3 pbc="F F F"
H        0.00000000       0.00000000       0.00000000
H        0.12256700       0.83228827       0.37498182
H       -0.72734034      -0.39891118       0.60429287
H        0.88656050      -0.49504808       0.14920373
H       -0.32576838      -1.21538353       1.07909465
H        1.04942727       0.88296491       0.66895950
H        0.68180215      -1.26879942       0.89128524
H        1.18818617      -1.07404089       1.76247311
H        1.51810908       0.11485198       0.57018965
H       -1.02535498       0.32363671       1.26945126
H       -0.49855351       0.98376906       1.10936844
H        0.55029637      -0.85620236       2.46511364
H        0.07115024       1.14343798       1.94797873
H        1.01432216       1.11257839       1.66864395
H       -0.79210788      -0.04221538       2.19954371
H       -0.40191877      -0.98431909       2.08328128
H        1.78385353      -0.25100011       1.49152350
H       -0.09268129       0.57249916       2.63111329
H        0.72645628       0.07351944       2.79872537
H        1.44571257       0.45197365       2.26253176
