21
Properties=species:S:1:pos:R:3 pbc="F F F"
H        0.00000000       0.00000000       0.00000000
H       -0.77018702      -0.01689900       0.59547228
H       -1.31585217      -0.83337140       0.29723382
H       -0.39347917      -0.24651255       1.52212894
H       -0.74737263      -1.11135697       1.79574263
H        0.01908392      -1.78160286       1.92473352
H       -0.18967433      -0.72254789      -0.70375568
H       -1.42007458      -1.40980875       1.08039486
H        0.87559795      -0.19475858       0.49871966
H        0.58083695      -1.39279389      -0.60174268
H        0.85981542      -1.34182644       1.70603693
H       -0.13184619      -2.49068284       1.27474368
H       -0.94680119      -1.27314782      -0.48918778
H        1.27007306      -1.83687449       0.90607446
H        0.66499454      -2.60824299       0.60243893
H       -0.72946507      -2.19157839      -0.24979042
H       -0.95411015      -2.30591178       0.78709364
H        0.31846797      -2.45676231      -0.29479778
H        0.64475656      -0.41259706       1.41921926
H        0.72285652      -1.58007288      -0.64294934
H        1.30678225      -1.23537171       0.20952243
