21
Properties=species:S:1:pos:R:3 pbc="F F F"
H        0.00000000       0.00000000       0.00000000
H        0.50421435      -0.31530851      -0.77097952
H        0.65354043      -1.37281752      -0.61766958
H       -0.75986940       0.40936196      -0.45064643
H        0.12489223      -1.87179720      -1.26544356
H       -0.33621895      -1.22892964      -1.91921854
H        0.15060538      -1.54067457       0.32201523
H       -1.54748940      -0.08961776      -0.17004925
H       -0.02311778      -0.19092160      -1.64262891
H       -0.82848036       0.30805811      -1.41797066
H       -0.25138259      -1.07076931      -1.99166203
H       -0.35592729       1.18857205      -1.82480729
H       -0.30470383      -0.68549418       0.62073678
H       -1.32310092      -0.80988109       0.64755350
H       -1.31470525      -0.86098623       0.46565992
H       -1.49902344      -0.10560330      -1.08968687
H       -1.49902344      -0.10560330      -1.08968687
H        1.22254825      -1.48831391      -1.04084086
H        1.22254825      -1.48831391      -1.04084086
H        1.22254825      -1.48831391      -1.04084086
H       -0.69841868      -2.15653753       0.06903654
