21
Properties=species:S:1:pos:R:3 pbc="F F F"
H        0.00000000       0.00000000       0.00000000
H       -0.81573808      -0.52769721      -0.06456009
H       -0.09677097       0.68549418       0.68468529
H       -1.54014289      -0.06414911       0.49551550
H       -1.13818491       0.73024988       1.00608754
H       -1.17376435       0.57058096       2.01928234
H       -1.63210225      -0.34101170       2.12995768
H       -1.89570737      -0.76096582       1.15985298
H       -0.26331019       0.45257285       2.34364057
H       -0.62768960      -1.48336244       0.25896031
H       -1.00090921      -1.01125765       2.58348775
H       -0.15981328      -0.54159665       2.72503996
H        0.28607416      -1.56775570       0.58449757
H        0.71477902      -0.70291132       0.45675883
H        0.67536724      -0.67024595       0.38467306
H        0.93097878      -0.64428985       0.69303185
H       -0.49172634      -1.29309618      -0.60481477
H       -0.49172634      -1.29309618      -0.60481477
H       -0.49172634      -1.29309618      -0.60481477
H       -0.49172634      -1.29309618      -0.60481477
H       -0.49172634      -1.29309618      -0.60481477
