21
Properties=species:S:1:pos:R:3 pbc="F F F"
H        0.00000000       0.00000000       0.00000000
H        0.87747955       0.49504808      -0.19565487
H        1.34956706      -0.06117323      -0.91751021
H        0.00888459      -0.83173102      -0.50616747
H        1.45411873       0.51286054       0.65316433
H        2.27607179       0.01388082       0.49995372
H        2.23049045      -0.78051817       1.14816380
H        0.03168929      -1.62613010       0.14324301
H        1.32154822      -0.79833061       1.62443125
H        2.26321721      -1.59699059       0.52717608
H        0.84775907      -2.12510991      -0.03871909
H        0.79738224      -0.83577538      -1.12522256
H        1.36837459      -2.09203863       0.61382407
H        0.92651945       0.04319951       1.32332730
H        2.20305181      -0.34431985      -0.54407680
H        0.11343193      -0.30389097       0.91531038
H        2.29223919      -0.30142769      -0.42112181
H        2.27938461      -1.28168201      -0.39389944
H        1.55193186      -1.55942225       0.35296077
H        1.55193186      -1.55942225       0.35296077
H        0.09977492      -1.22323072       0.96976888
