20
Properties=species:S:1:pos:R:3 pbc="F F F"
H        0.00000000       0.00000000       0.00000000
H        0.97460508       0.08895500       0.30912116
H       -0.60534239       0.05341591       0.82706183
H       -0.16713937       0.73181123      -0.62014329
H        0.05492777       0.14237091       1.60773742
H        0.97460508       0.17791000       1.33157456
H        1.27738750       0.87572753      -0.06189042
H        1.50647998       1.51160192       0.63899565
H       -0.90117127       1.28803253      -0.16722077
H        0.56292355       1.33927560      -0.63459313
H        1.38326967       1.10531688       1.49354231
H       -0.49844259       2.21543932       0.00898899
H        0.41275966       2.23233843      -0.33377308
H       -1.16181374       0.84802604       0.74342501
H        0.61747205       1.63126850       1.92972219
H       -0.15549392       1.04807770       2.03206015
H        0.92338419       2.34916401       0.53030771
H       -0.93272126       1.48390043       1.44431114
H        0.31950140       2.43811893       1.35537529
H       -0.64952856       2.34916401       1.02919745
