20
Properties=species:S:1:pos:R:3 pbc="F F F"
H        0.00000000       0.00000000       0.00000000
H       -0.61304885      -0.15966894      -0.80746567
H       -0.33189824       0.74740851       0.62011933
H       -0.04707646       0.13878287      -1.60991549
H       -1.11911440       1.12586272       0.18985888
H       -0.53381288       0.87059408      -2.02896309
H       -1.37265790       0.56964141      -0.63455451
H       -0.90362793       2.09393811      -0.07418540
H        0.39671704       1.46995640       0.63930547
H        0.84976429       0.38942647      -1.32545924
H       -1.02278805       2.14461470      -1.03922105
H        0.10843438       1.60240531      -2.03459930
H       -1.30254233       1.21250892      -1.43150437
H        0.92148483       0.30047148      -0.30552435
H       -0.22689608       2.31148529      -1.45769370
H        0.94186825       1.25531483      -1.66993904
H        0.06698275       2.28869677       0.19656911
H        1.12611043       1.78126645      -0.80810744
H        1.11559391       1.19426227       0.02842271
H        0.43337408       2.40044022      -0.67701811
