20
Properties=species:S:1:pos:R:3 pbc="F F F"
H        0.00000000       0.00000000       0.00000000
H        0.73469222      -0.22961354      -0.67884368
H        0.22677782      -0.52769721       0.78623688
H        0.04727381       0.94706190       0.22113320
H        1.39825082      -0.81280434      -0.26940575
H        0.40066579       0.13338542       1.47962976
H        1.21972668       0.64707583      -0.90128744
H        1.32712364      -0.01809537       1.73806775
H        1.84745288       0.83954704       1.52120161
H        1.73251390      -0.76550388       1.16329539
H        2.24956608      -0.34314331      -0.21704546
H        2.16993308       0.48858771      -0.71698844
H        0.28237283       1.06507003       1.15861034
H        2.45919704      -0.39965180       0.53766960
H        2.39637947       1.19320524       0.06809968
H        1.53296423       1.71915674       0.24477197
H        0.77531624       1.38680458      -0.36254638
H        2.53271770       0.60993350       0.79249477
H        1.19935083       1.53636384       1.13683963
H        1.00561404      -1.04865050       0.58062434
