21
Properties=species:S:1:pos:R:3 pbc="F F F"
H        0.00000000       0.00000000       0.00000000
H        0.42330277      -0.73181123      -0.48304045
H        0.25714624      -1.54547203       0.02529907
H        0.08863404      -0.82076621      -1.44917083
H       -0.31841785      -1.70061386      -1.53993273
H       -0.47777522      -0.37845421       0.75931829
H       -0.69999588       0.37845421      -0.56110531
H       -0.67263103      -0.06116456      -1.53639495
H       -0.29086047      -1.33279157       0.71069682
H       -1.42892098      -0.22697341       0.61636257
H       -1.20057607      -1.79633963       0.60646349
H       -1.59349203      -0.49265414      -1.67479897
H       -1.92134833      -1.07379174       0.49813253
H       -2.15399361      -0.27481565      -0.90900189
H       -2.44286680      -1.13966000      -0.56745052
H       -2.09746337      -1.84873986      -1.13838220
H       -1.33054590      -1.57622695      -1.65590024
H       -1.56709599       0.22697341      -0.14486995
H       -1.47508693      -1.45808530      -1.71933877
H       -3.30564928      -1.17598224      -1.31997073
H       -3.30564928      -1.17598224      -1.31997073
