21
Properties=species:S:1:pos:R:3 pbc="F F F"
H        0.00000000       0.00000000       0.00000000
H        0.49089283       0.77460212       0.32722577
H       -0.14838916       1.50641334       0.38912773
H       -0.07950888       1.80486512       1.36867142
H       -0.98101741       0.29845181      -0.04307186
H        0.04850494      -0.68549418       0.68978679
H        0.89988911       0.54498857       1.24009132
H       -0.84546101      -0.90333271       1.00827074
H        0.66772979      -0.31964210       1.42193210
H        0.57068092       1.19015050       1.87136734
H       -1.51455283      -0.25776950       0.63463134
H       -0.84546101      -0.68549418       1.95727396
H        0.09178531      -0.26622617       2.26972842
H       -0.97801900       1.68685699       1.72478175
H       -1.51496720       1.40371037       0.96348321
H        0.03714544       0.63392919       2.54907060
H       -1.79402208       0.50991958       1.23055506
H       -1.44472468       0.06816649       2.10197878
H       -0.95428735       1.06150866       2.40058804
H       -1.10681534       1.20796156       0.17542368
H       -0.88008094       0.86256552       2.42358637
