21
Properties=species:S:1:pos:R:3 pbc="F F F"
H        0.00000000       0.00000000       0.00000000
H       -0.33100656      -0.58582085      -0.77496612
H       -0.08867799      -0.15433127      -1.67408657
H       -0.93681598       0.04042731      -2.21819592
H       -0.94698030       0.99476469      -2.41106343
H       -1.35681200      -0.56800842      -0.74795431
H        0.37880749       0.74034882      -1.48880613
H       -1.64657485       0.01781243       0.04335803
H       -0.12149495       1.45831275      -2.01480460
H       -0.78482610       0.28200430       0.53418958
H        0.46032542       0.77460212      -0.36898917
H        0.41054392       0.91513216      -0.58504653
H       -2.15346050       0.77147311      -0.30753130
H       -1.73227644      -0.14434366      -1.68794751
H        0.28876269       1.95336080      -2.81476712
H        1.15717196       1.51358438      -2.79189992
H       -2.24871969       0.71329874      -1.46198320
H       -2.24871969       0.83130682      -0.49547660
H        1.23637307       0.81676763      -2.04256845
H        1.26169503       1.04392338      -3.63839531
H       -0.56426203      -0.30274123       1.41370726
