21
Properties=species:S:1:pos:R:3 pbc="F F F"
H        0.00000000       0.00000000       0.00000000
H       -0.93989587      -0.24138860      -0.47165081
H       -0.11793167       0.58582085       0.83440393
H        0.42215070      -0.87668937       0.32638690
H        0.45811981      -0.82327348       1.35068035
H        0.09644245       0.05986929       1.68923879
H       -0.24445125      -1.62409782       0.10200708
H       -1.70743823       0.27904654       0.07985011
H       -1.08402646      -1.19572592      -0.34309131
H       -1.21219921       0.80499810       0.80884755
H       -1.07794631       0.73730165       0.89344960
H       -0.60056615      -2.02300906       0.97800708
H       -2.43736005       0.63704371      -0.35303566
H       -2.97243905       0.80639750      -0.69630706
H       -3.36126423       0.03179538      -1.14000452
H       -2.82940841      -0.74280673      -0.88469708
H       -0.58871025      -0.23858252       2.39267039
H       -2.24734759       0.50813270      -0.21296611
H       -1.40583014       0.19290707       1.94606578
H       -2.12726593      -0.49216315      -0.25841063
H       -1.85471272      -1.41356444       0.21066856
