21
Properties=species:S:1:pos:R:3 pbc="F F F"
H        0.00000000       0.00000000       0.00000000
H       -0.90169489       0.25064358      -0.26867270
H        0.19018230       0.34709048       0.88961780
H       -1.36796892      -0.66094911      -0.33875299
H        0.47652030      -0.44730854       1.47293973
H       -0.81495959      -1.45534813       0.00247234
H       -1.29016221      -1.85425925       0.82001519
H       -2.14684534      -1.32830763       1.02687955
H        0.54132420      -1.23304570       0.73636329
H       -0.69230354      -1.73625112       1.57942283
H       -1.17771018      -1.12153649       2.24261999
H       -0.14984328      -0.65337199       2.11601377
H       -0.55645287      -1.51821637       1.92953670
H        0.14013278      -1.06980205       0.00369002
H       -0.25733608      -1.84890866       1.11974537
H       -1.84893095      -0.96245551       1.93831968
H       -2.07045197      -0.61027247       0.33356416
H       -1.22651565       0.80686486       0.53034741
H       -1.98027897       0.30788514       0.89217752
H       -1.91853416       0.10184109       1.77536178
H       -0.65723693       0.09828621       2.27694678
