20
Properties=species:S:1:pos:R:3 pbc="F F F"
H        0.00000000       0.00000000       0.00000000
H       -0.27385142       0.28314662      -0.89044607
H       -0.81481135      -0.47051406      -1.18611288
H       -0.21021634      -0.93864530       0.15104640
H       -0.74716455      -1.22179198      -0.61025214
H        0.56586498      -1.52183604       0.22619465
H       -0.27325854      -1.93087196      -1.08001769
H        1.33691597      -0.93864524       0.11030693
H       -0.00246069      -1.61556339      -1.96053457
H        0.97142875       0.05067664      -0.04265080
H       -0.40951258      -0.73571575      -2.05129647
H        0.33129656      -0.12581569      -2.21647739
H        0.57918543      -2.13173604      -0.53268969
H        0.51239681       0.47790521      -1.52068949
H        1.26008296       0.34912845      -0.98122901
H        1.32511330      -1.94696510      -1.13061297
H        1.77312946      -0.42224005      -1.42292786
H        0.97964430      -1.58111298      -2.02511120
H        1.23523033      -0.65201527      -2.16480422
H        1.83322895      -1.21515393      -0.73776209
