21
Properties=species:S:1:pos:R:3 pbc="F F F"
H        0.00000000       0.00000000       0.00000000
H        0.63848275      -0.52769721      -0.51179713
H       -0.55369717       0.46354809      -0.72929174
H        0.47764969      -0.43874222      -1.52152157
H       -0.24724180       0.19713217      -1.65663993
H       -1.48642898       0.21290451      -0.60580134
H       -1.02051008      -0.29791591      -2.11523271
H       -0.72205889      -1.21634650      -2.23962307
H       -0.68141615      -0.61586303       0.56613791
H       -1.75070405      -0.28214356      -1.46510911
H       -1.63032103      -0.45619410       0.20919353
H       -1.95333374      -1.36778677      -0.13429654
H       -0.42898384      -1.59518218       0.39139277
H        0.47480685      -1.45679498      -0.27086449
H       -1.21512413      -2.06460357       0.01675612
H       -1.97079134      -1.25021899      -1.20488727
H       -1.34672832      -1.86011910      -1.63689208
H        0.32971898      -1.64585876      -0.21677077
H        1.30252528       0.08720934      -1.83181047
H        1.95611787       0.13788599      -1.11187327
H        1.03670788       1.01461625      -2.18192673
