21
Properties=species:S:1:pos:R:3 pbc="F F F"
H        0.00000000       0.00000000       0.00000000
H       -0.12270200      -0.91159266      -0.45526573
H       -0.80215883       0.61471456      -0.17886049
H       -0.97696918      -0.92849165      -0.92217350
H       -1.36273468       0.08701736      -0.77497393
H       -1.47099853       0.49637932      -1.65176511
H       -0.85212469      -1.05287850      -1.93324506
H        0.58974993      -0.99598587      -1.11355972
H        0.85953635       0.43148959      -0.35824287
H        0.56774306       1.28913200      -0.84056032
H       -0.40044737       1.37352526      -0.78101176
H       -0.81353331       1.32284868      -1.66126895
H        0.76320231       1.16474509      -1.84038401
H        1.22670496      -0.26532716      -1.01623797
H       -1.17551756      -0.23921770      -2.35919595
H        0.10364693      -1.17088664      -2.07689595
H        1.18098640       0.17444929      -1.88374448
H        0.42275709      -0.41722596      -2.60436654
H       -0.35839760       0.19227189      -2.80580044
H        1.10062981       0.10872561      -2.04117250
H        0.12075269       2.22126818      -1.86859095
