21
Properties=species:S:1:pos:R:3 pbc="F F F"
H        0.00000000       0.00000000       0.00000000
H        0.15274149      -0.33235219      -0.95892441
H        0.25836679       0.93864530       0.01589089
H        0.43229598       0.47857371      -1.61342871
H       -0.91681755      -0.15148079       0.29079226
H       -0.77784002      -0.66470438      -1.23620427
H       -1.27590561       0.74230999       0.43311116
H       -0.57314569       1.40339255       0.30211794
H       -0.30780661       0.67333227      -2.29727173
H       -1.03952575      -0.10892558      -1.99164546
H        0.48047283       1.23709714      -0.94062322
H       -1.07841420       0.03046471      -2.08230853
H       -0.39968553       1.46010482      -2.76725578
H       -1.38119328      -0.52993500      -0.47679392
H       -0.43135524       2.00987577      -3.12722039
H       -0.43135524       2.00987577      -3.12722039
H       -0.21504101       1.93391395      -1.23050392
H       -0.96231425       2.06467962      -0.46329445
H       -0.97833097       1.79203725      -3.90273619
H       -1.33741903       0.89824647      -3.76041722
H       -0.76006567       1.53500271      -2.00325346
