20
Properties=species:S:1:pos:R:3 pbc="F F F"
H        0.00000000       0.00000000       0.00000000
H        0.83968246      -0.37845421      -0.31585881
H       -0.70310861      -0.74740851       0.01851445
H        0.24331933       0.22961354       0.97025621
H        0.68897873      -1.37670851      -0.50052220
H       -0.97096282      -0.86541659       0.94716352
H       -0.37160099      -0.29633802       1.60158181
H        0.23906213      -0.82403523       2.14627171
H        1.19784749      -0.06883827       1.20074749
H       -0.24686408      -1.59454703      -0.34302431
H        1.17442954      -0.77791822       1.86761951
H        1.50808120      -1.60964918       1.48688209
H       -0.27414078      -2.26479292       0.43373191
H        1.55567408      -0.39626667       0.41923478
H        1.25541282      -1.96252942       0.12340915
H        1.78465641      -1.35900557       0.58757967
H       -0.76534653      -1.74429274       1.13056600
H       -0.11096555      -1.72739375       1.85137165
H        0.69821328      -2.49440646       0.66852766
H        0.73111552      -2.27989507       1.50734138
