20
Properties=species:S:1:pos:R:3 pbc="F F F"
H        0.00000000       0.00000000       0.00000000
H        0.36925858       0.05341591      -0.95609558
H       -0.46627399      -0.91159266      -0.07008027
H       -0.75243527       0.60990006       0.09961975
H       -0.35039154      -1.31050384      -1.00857115
H        0.10159636      -0.64942122      -1.56241012
H       -1.27640283      -1.43489075      -1.43325329
H       -0.79347003       1.19309092      -0.67901087
H       -1.28972328      -0.82499069      -2.19213772
H       -0.46173841      -0.36627460      -2.30439591
H       -1.64368582       0.11485198       0.21761817
H       -1.71948123       1.06870401      -1.10369301
H       -0.59138662       0.64610505      -2.19668078
H       -1.45951331      -0.75192374       0.13315670
H       -0.13921916       0.87778240      -1.32754564
H       -2.23857141       0.36549556      -0.51131928
H       -1.96780312      -1.05037558      -0.70701694
H       -2.46067882      -0.38816512      -1.08640599
H       -1.98461533      -0.16390806      -2.02434134
H       -1.59114659       0.80577397      -2.02842593
