20
Properties=species:S:1:pos:R:3 pbc="F F F"
H        0.00000000       0.00000000       0.00000000
H        0.45279220       0.75366068      -0.41837266
H        1.17158663       0.43835217      -0.99454629
H       -0.87852359      -0.11800810      -0.40290359
H       -1.03492904       0.56748611      -1.07647312
H       -0.18525061       1.19343710      -1.00791395
H        0.22783542       1.14276052      -1.88817120
H        1.14177585       0.67921245      -1.83195913
H       -0.33995843       0.58698171      -2.45100403
H       -1.14486873       0.18903190      -1.96683633
H        1.19774044      -0.53352135      -0.94126624
H        0.51016825      -0.83756196      -0.30255926
H        1.11369300      -0.19747692      -2.36482954
H        0.16764885      -0.25089282      -2.75912786
H       -0.28612995      -1.02549493      -2.38211679
H       -1.08523512      -0.83537525      -1.94792199
H       -0.94014782      -1.01268816      -0.90197670
H        1.05662167      -0.91197556      -1.82722270
H       -0.07702810      -1.39334083      -0.84511918
H        0.17535043      -1.43792713      -1.83495629
