21
Properties=species:S:1:pos:R:3 pbc="F F F"
H        0.00000000       0.00000000       0.00000000
H        0.52691501       0.55577880      -0.60127473
H        0.12530106       0.46682382      -1.54154980
H       -0.74358624      -0.40936196      -0.47703591
H       -0.72741890      -0.09405345      -1.39811146
H        0.73903042       0.03533423      -2.24189043
H        1.35717869       0.16854453      -0.69640446
H        1.35717869      -0.73307955      -0.10378206
H        1.47617316      -0.16380766      -1.66009855
H        0.31025809      -0.77832657      -2.56153297
H        1.49570096      -1.48473775      -0.61774635
H        0.57558262      -0.79439902       0.30159363
H        0.66682386      -1.98371744      -0.50800598
H        1.58080184      -1.15238559      -1.58502293
H       -0.55399638      -0.86865556      -1.96200609
H       -0.64578342      -1.43098927      -0.47102052
H        0.87916309      -1.51013780      -2.26343822
H        0.35073638      -2.03783512      -1.63864887
H        0.71692359      -1.98715854      -0.73787159
H       -0.53424799      -1.66326571      -1.39963114
H        0.18084845      -1.56407809      -0.01481891
