20
Properties=species:S:1:pos:R:3 pbc="F F F"
H        0.00000000       0.00000000       0.00000000
H        0.52815789      -0.26419187       0.83939010
H       -0.27763951       0.92909771       0.08806052
H        0.06495583       1.27618814       0.93080449
H       -0.75623721      -0.52573669      -0.00663632
H       -1.24762201       1.01349092       0.07954849
H       -1.52634609       1.39194512       0.93227720
H       -0.75623721      -1.10892749       0.77307481
H       -2.03959942       0.68286520       1.35870123
H       -1.61285567       0.05782562      -0.00188907
H       -2.08975935      -0.16001287       0.81858039
H        0.47971609       0.54437691       1.42119956
H        0.11295974      -0.87931395       1.26814866
H       -1.58856595      -0.87931395       1.32789946
H       -1.53047371       0.49809423       2.16784382
H       -0.76024061       1.54038000       1.48087478
H       -0.66957992       1.05431557       2.22079325
H        0.02859101       0.33831346       2.19731927
H       -1.25961304      -0.38078198       2.11735582
H       -0.32247874      -0.56834346       2.14455414
