21
Properties=species:S:1:pos:R:3 pbc="F F F"
H        0.00000000       0.00000000       0.00000000
H       -0.02481474      -0.91159266      -0.47085762
H        0.82551742       0.08439321       0.50937194
H       -0.82827353      -1.38125372      -0.18461773
H        0.75275803      -1.46781397      -0.09759843
H        1.35746408      -0.79229617       0.46727198
H        0.51053810       0.24406216       1.47302008
H        1.35746408      -1.15814829       1.42616510
H       -1.34954643      -0.79543287       0.47750941
H        0.42444003      -2.22147465       0.42419058
H       -0.52725154      -2.21639109       0.42861828
H        0.84082943      -0.51528072       2.03701210
H       -0.84376276      -2.09200430       1.39695311
H        0.74095112      -2.09708786       1.39252543
H        0.82486051      -2.03483772       1.45892286
H       -1.38222659      -1.22692251       1.40813971
H       -0.51558352       0.22624969       1.46401536
H       -0.78775388       0.08439321       0.56602341
H       -0.89681989      -0.61220795       2.07133675
H       -0.10095614      -1.05198443       2.41955853
H       -0.07450360      -2.04132771       1.99170780
