21
Properties=species:S:1:pos:R:3 pbc="F F F"
H        0.00000000       0.00000000       0.00000000
H       -0.67230010      -0.60990006       0.35227177
H       -1.41321456       0.00481451       0.70793402
H       -0.29223189      -1.16612136       1.12653911
H       -1.14914644       0.98413366       0.55132639
H        0.70618212      -0.93650782       1.18794668
H       -0.77264762      -0.98135042       1.95305061
H       -0.27901959       1.00103271       0.11468631
H        0.86703432      -0.62119931       2.09501219
H       -0.14504939      -0.54157400       2.55369854
H       -1.45774603      -0.32026780       1.74891591
H       -1.05126739       1.41562319       1.47737193
H        1.16609395       0.34687614       1.93155837
H        0.87559795      -0.19475858       0.49871966
H        0.35922718       1.41039467       0.72552562
H       -0.02463377      -0.63901174       2.60288477
H       -1.22522545       0.30508059       2.38390541
H       -1.22235513       0.66821468       2.15959883
H        1.61262572      -1.12037230       2.30299687
H        1.10567975       0.59985155       1.01225448
H        1.04063737       0.74931204       0.94165248
