21
Properties=species:S:1:pos:R:3 pbc="F F F"
H        0.00000000       0.00000000       0.00000000
H       -0.92830116      -0.43148959      -0.07346868
H        0.57267553      -0.58319080      -0.52914286
H        0.10094517      -1.31500196      -0.96501410
H       -0.01969359       0.95566529      -0.37368414
H        0.21938741      -1.19699383      -1.92423582
H        0.79520673      -0.42239171      -2.05262828
H       -1.50143266       0.22959304      -0.50072855
H       -0.91993672       1.10714602      -0.71232367
H        0.98538899      -0.07530123      -1.16301048
H        0.56899697       0.93876630      -1.14906704
H        0.20619053       0.24785423      -2.55973196
H       -1.79060292      -0.17976892      -1.33551264
H       -0.70214200      -1.03732491      -2.34686255
H       -0.84594184      -1.19699383      -0.77126175
H       -1.41556072       0.43494564      -2.06680822
H       -0.72341633      -0.15105695      -2.73300886
H        0.13169691       0.99951243      -2.03266621
H       -1.34090579      -1.02221048      -1.52809691
H       -0.85859120       1.12389934      -1.79354012
H       -0.79175258      -0.12083316      -2.56684256
