20
Properties=species:S:1:pos:R:3 pbc="F F F"
H        0.00000000       0.00000000       0.00000000
H       -0.43620220       0.58582085      -0.72101700
H       -1.39783072       0.67021406      -0.59370077
H       -1.59687638       0.14251685       0.20001042
H       -0.76280731      -0.26419187       0.63375980
H       -0.32266259       0.03289741      -1.64053416
H       -1.25891435      -0.19671613      -1.99271894
H       -1.87180448       0.20666596      -1.37715197
H        0.16620103      -0.84379196      -1.42663693
H       -0.42461661      -1.59745264      -1.60267937
H        0.35247484      -0.81366080      -0.40221706
H       -2.19802380      -0.58929437      -0.02611999
H       -2.35944009      -0.57148194      -1.03950596
H       -0.54397953      -2.06711364      -0.75814885
H       -1.98856664      -1.36609209      -1.46271801
H       -0.06468898      -1.59745264      -0.05262780
H       -1.72739410      -1.42102540       0.16040662
H       -1.52922034      -1.92231345      -0.73268878
H       -1.29745781      -1.19854140      -1.96646774
H       -0.86070067      -1.28581917       0.62946177
