21
Properties=species:S:1:pos:R:3 pbc="F F F"
H        0.00000000       0.00000000       0.00000000
H        0.85755634      -0.19475858       0.52914101
H       -0.53313851      -0.81366080      -0.04219427
H       -0.62242329      -0.93804771      -1.05702436
H       -0.14204767      -0.21549982      -1.60519195
H        0.83725584      -1.14909589       0.72120625
H       -0.06640825      -1.58826292       0.31865942
H       -0.21581370      -1.80289209      -1.24350142
H        1.60290670      -1.58058548       0.19118798
H        1.20058918      -2.25083137      -0.47381949
H        0.17759752      -2.19741535      -0.41090041
H        2.12055039      -0.85803759      -0.32193321
H        2.06790638      -1.08765113      -1.32084763
H        0.23673759       0.34709048      -0.87837595
H        1.66580081      -0.00923848      -0.17769769
H        1.42991781      -1.98299003      -1.32470560
H        0.53577721      -0.65527630      -2.14852524
H        1.28915298       0.35661361      -1.05952108
H        1.38926196      -0.37212968      -1.77509177
H        0.52222967      -1.60961366      -1.95586586
H        1.35562468      -1.86025727      -1.51918364
