21
Properties=species:S:1:pos:R:3 pbc="F F F"
H        0.00000000       0.00000000       0.00000000
H       -0.30820453      -0.91843063       0.09775501
H        0.91605562      -0.05341591      -0.45968771
H        0.30167979       0.33235219       0.92296004
H        0.75905728       0.47428131      -1.26277435
H        1.00078392      -0.99206120      -0.70428342
H       -0.17211074       0.90577090      -1.27094579
H        0.24554819      -1.50162148      -0.45115966
H        1.26725614       0.45036030       0.88056618
H        0.08315821      -0.41505632       1.59150529
H        0.98279661      -1.04547715      -1.72905040
H        0.96840924      -0.71350813       2.01645350
H        0.86493820      -0.17195708      -2.12026644
H        1.67223251      -0.18581092       1.59904563
H       -0.61171722       0.62262428      -0.44958413
H        1.11008954      -1.65215349       1.79981422
H       -1.41932547       0.03680342      -0.69022238
H       -1.19311905      -0.90153164      -0.30807954
H       -0.03442061      -0.11854117      -2.61181951
H        2.29536891      -0.85605687       1.13450789
H        1.65680182       0.18616843      -0.03145391
