20
Properties=species:S:1:pos:R:3 pbc="F F F"
H        0.00000000       0.00000000       0.00000000
H       -0.01035373      -0.77460212      -0.58986890
H       -0.70092952      -0.72392547      -1.27441096
H        0.80807054      -0.82527876      -1.11491609
H       -0.31991106      -0.80831867      -2.16646671
H        0.86849117       0.40936196      -0.16188523
H       -0.72720009       0.64286757      -0.33350447
H       -1.12732661       0.14091891      -1.13916814
H        0.65548527      -0.74088556      -2.07286000
H        1.40780151      -0.11833525      -0.77730453
H        0.70467710       1.28920960      -0.54541349
H       -0.53507793       0.10327399      -2.58602118
H        1.17295003       1.30702209      -1.45850003
H       -0.29788184       1.44887853      -0.69609654
H        1.57328629       0.43788606      -1.62380123
H       -0.45871490       1.53783357      -1.70582104
H       -0.96564525       0.72673976      -1.96620917
H        0.36508530       0.56682205      -2.75380993
H        1.08582759       0.01104325      -2.40783119
H        0.39452308       1.48715699      -2.17216635
