21
Properties=species:S:1:pos:R:3 pbc="F F F"
H        0.00000000       0.00000000       0.00000000
H        0.42330277      -0.73181123      -0.48304045
H        0.16333807      -1.50641334       0.04655457
H       -0.57645720      -0.89148015      -0.31478560
H       -0.79467946      -1.26993442       0.55539393
H        0.82087672      -0.68113458       0.40433091
H       -0.16266596      -0.28314662       0.91729414
H        0.37631392      -1.38202643       1.04279399
H        0.25280017      -0.52965379       1.18047738
H       -0.72820711      -0.32287252       0.33925480
H        0.13867801       0.04141331       0.14771193
H        0.91439396       0.18370980       0.84177756
H        0.19375104      -0.05868065       0.70465827
H       -0.88500202      -0.70635581       1.44862866
H       -0.88304502      -0.74500954       1.43478203
H       -0.80474269      -0.78315461       1.42766523
H       -1.20870173      -1.05184507       1.66890037
H       -0.16133571      -0.42189503       0.99697918
H       -0.38476944      -0.17820448       0.95954967
H       -0.37152201       0.51688105      -0.49583083
H       -0.39074558       0.48485976      -0.53451085
