21
Properties=species:S:1:pos:R:3 pbc="F F F"
H        0.00000000       0.00000000       0.00000000
H       -0.61304885      -0.15966894      -0.80746567
H       -0.42606509       0.64286757       0.67713648
H        0.38806838       0.03508964      -0.92217141
H       -1.20143962       0.95817608       0.17970726
H       -0.91905379       0.05967677       0.07305741
H       -0.42527300       0.43400082      -1.40452981
H       -1.27703226       0.40195477      -0.67949438
H       -0.43595821       1.50050998       0.11350930
H        0.34038693       0.82763851       0.10575926
H       -0.86998034       1.28180242      -0.77025628
H       -0.64834911       1.26573181      -0.95008349
H        0.30375931       1.05270612      -1.02547872
H        0.01648617       1.32268655      -0.73289412
H        0.40970376       0.35563070      -0.68211234
H       -1.27019536       0.38332418      -0.92328238
H       -0.30430746      -0.89865810      -1.60686827
H        0.19482785       0.68464440      -2.11214113
H       -0.33255205      -0.89865810      -1.61721087
H       -0.34111586      -0.92795414      -1.59248877
H       -0.33255205      -0.89865810      -1.61721087
