21
Properties=species:S:1:pos:R:3 pbc="F F F"
H        0.00000000       0.00000000       0.00000000
H       -0.41358426      -0.01689900      -0.88131911
H        0.85983193       0.55622131      -0.06804986
H        0.62222183       1.55447555      -0.08685507
H       -0.02557967       1.02440715       0.05709293
H       -0.28239965       1.67248368      -0.42714161
H       -0.67919940       0.76021528      -0.68876755
H        1.12781119       1.05549586      -0.75278270
H        0.60882974       0.07205600      -0.89029145
H       -0.01804769       0.63154143      -1.40229285
H       -0.72843832       0.44664910      -0.02148539
H        0.90072703       0.97871292      -1.09235597
H       -0.46251324       1.41472459      -0.23464648
H        0.48268244       1.59457588      -0.31128061
H        1.62331343       0.93467551       0.40304390
H        0.05147368       0.53770852      -0.51876175
H        1.27820289       0.40893883      -0.26988807
H       -0.10907108       1.58720672      -1.03932953
H        0.80916756       0.71137285      -1.00520372
H       -0.76712161       0.92282993      -2.19885421
H       -0.79461509       0.92282993      -2.17207527
