21
Properties=species:S:1:pos:R:3 pbc="F F F"
H        0.00000000       0.00000000       0.00000000
H       -0.90169489       0.25064358      -0.26867270
H        0.63804287       0.43977645      -0.58954126
H       -0.65555060      -0.72867560      -0.45216918
H        0.34938869       0.14132464      -1.52811956
H        0.42255640      -0.52829897      -0.85358560
H       -0.30039707      -0.65307438      -1.53382170
H       -1.13988853      -0.22158480      -1.13083935
H       -0.64121652       0.33608323      -1.71276641
H       -0.02840617       0.97305566      -1.19113970
H       -0.27501386       0.81338674      -0.20777082
H       -0.41618854      -0.77661294      -1.34028268
H       -1.00291800       0.75997084      -0.92931515
H       -0.61478394      -0.67594719      -0.75331962
H        1.10799432       0.75603920      -1.84429598
H       -0.88337219       0.70252287      -2.75562477
H       -0.38834554      -0.52595156       0.79113001
H       -1.22067976       0.72638857       0.70723009
H       -0.29144257      -0.84680283       1.47674954
H       -0.98727202       0.73945868      -2.71176839
H       -0.87703919       0.77590841      -2.72835112
