21
Properties=species:S:1:pos:R:3 pbc="F F F"
H        0.00000000       0.00000000       0.00000000
H       -0.49101692      -0.19475858      -0.87994057
H        0.26106727       0.50205815      -0.83368349
H       -0.95814550       0.11800810       0.12685506
H       -1.24717069       0.95557004      -0.39110070
H       -0.75306296       0.63697243      -1.31308746
H       -1.42845476       0.20415260      -0.75582713
H       -0.55741781       0.97338247       0.36866736
H       -0.33256382       1.39275062      -0.59968090
H        0.19909725       0.91142011       0.04759026
H       -0.89426434       0.57967883      -0.83611512
H       -0.23531887       0.03127879       0.61769903
H       -0.57780385       0.68682909      -1.29217649
H        0.27265126       0.98338866      -1.24326336
H        0.51948810       1.06039846      -1.06537783
H       -1.10148358       1.72181296      -1.36188245
H       -1.15305448       1.72181296      -1.30606878
H       -1.12775874       1.72181296      -1.33442831
H       -1.02198124       1.73984110      -1.19322348
H       -0.54235661       1.82803440      -0.06384912
H       -0.53798902       1.82803440      -0.08980121
