21
Properties=species:S:1:pos:R:3 pbc="F F F"
H        0.00000000       0.00000000       0.00000000
H        0.42017129      -0.49897972       0.72286665
H       -0.22633804      -0.68549418      -0.65339857
H       -0.15667441      -1.45684195      -0.26055667
H       -0.47107926      -0.00393164       0.84086508
H       -1.00117278      -1.11698377      -0.13689905
H        0.59656978      -0.76002520      -0.24072199
H       -1.14945829      -0.61383170       0.50044650
H       -0.97890151      -0.29845181      -0.07747335
H       -0.36455774      -0.73183978       1.06441998
H        0.36880305      -1.37473977       0.54894388
H       -0.70970154      -1.47867608       0.41847661
H       -0.22250792      -0.91119170       1.24808502
H        0.85328829      -1.85048473       1.45415759
H        1.20571065      -1.79706883       2.41658640
H        0.50697696      -0.93889207       1.13417149
H        0.88382488      -0.98059642       1.88452792
H        0.64180857      -2.54447746       1.99620700
H        0.55977690      -1.18716884       2.81514931
H       -0.17531055      -0.85889685       0.00409971
H       -0.63623333      -2.58777094       0.20638666
