21
Properties=species:S:1:pos:R:3 pbc="F F F"
H        0.00000000       0.00000000       0.00000000
H       -0.73394406      -0.63587439       0.07106813
H       -1.17820299      -0.65277338      -0.79519361
H        0.08861223      -0.96923625       0.02810566
H       -0.58921254      -1.40901268      -0.51522774
H       -0.64517766       0.09463513      -1.25409281
H       -0.94727755       0.14531177      -0.32984799
H       -0.01102579       0.37492532      -0.68203276
H        0.70432836      -0.26419187      -0.69817477
H        0.36345479      -1.12183428      -1.14714992
H       -0.54942381      -1.42028606      -0.78534484
H        0.22994214      -0.24729286      -1.54831183
H       -0.48464283      -1.00382614      -1.61068571
H       -0.44773763      -1.24521470      -0.55973530
H        0.30262789       0.33715296      -0.80413926
H        0.16346294       0.34836113      -0.92685735
H        0.14796589       0.33715296      -0.87343335
H        0.73853534       0.01764585      -0.51221597
H       -0.34670156      -0.60696560      -2.58170223
H       -0.34670156      -0.60696560      -2.58170223
H       -0.34670156      -0.60696560      -2.58170223
