21
Properties=species:S:1:pos:R:3 pbc="F F F"
H        0.00000000       0.00000000       0.00000000
H       -0.29363519      -0.58319080       0.72230726
H        0.00000000       0.36585209       0.95889318
H       -0.83887112       0.18477097      -0.45849293
H       -1.26331902      -0.66758400       0.74784124
H       -1.38117766       0.85501695       0.09828156
H       -0.72282434      -0.66402817       0.00425339
H       -0.86203015       0.02923274       1.38560104
H       -1.62285590      -0.13053754       0.02525216
H       -0.98599893       0.97302502       0.98030692
H       -0.35629237       0.90843284       0.08928756
H       -1.74151993       0.32906538       0.90255290
H       -1.70845842       0.30738229       0.87201416
H       -1.67029285       0.96069330       1.17119277
H       -1.66072559       0.91144079       1.19431388
H       -1.66535079       0.88691103       1.16981411
H       -2.11527348       0.95338565       1.04976296
H       -1.97262037       1.51884723       1.07584190
H       -1.81481910       0.80822933       1.18044317
H       -1.30663848       1.83770728       1.15829992
H       -1.52770114       0.63146996       0.92454588
