21
Properties=species:S:1:pos:R:3 pbc="F F F"
H        0.00000000       0.00000000       0.00000000
H        0.45279220       0.75366068      -0.41837266
H        1.03457057      -0.02094144      -0.32046223
H       -0.50421429       0.31530851      -0.77097952
H        0.00000006       0.63061702      -1.54195905
H        0.20127681       0.87166876      -1.35157943
H       -0.41630712       1.23215365      -0.76866472
H       -0.33371568       0.74306190      -1.07652652
H        0.47292864      -0.73002136      -0.68077463
H        1.09722221       0.64014119      -1.03257561
H        1.14746284      -0.33624995      -1.23473620
H       -0.12225994      -0.67024595      -0.76755893
H        0.21070200      -0.53526276      -1.65372384
H        0.55338705       0.40684092      -1.87356806
H       -0.46501046       0.23610574      -1.61216414
H        0.43356946      -0.73255098      -0.66295850
H        1.29283381      -0.34548166      -0.10231901
H        1.31645024      -0.25468430      -0.05779905
H       -0.58995539      -0.44503593       0.45612574
H       -0.67847985      -0.47064883       0.26890481
H       -0.79763293      -0.30956718      -0.14867726
