12
Properties=species:S:1:pos:R:3 pbc="F F F"
H        0.00000000       0.00000000       0.00000000
H        0.90784711      -0.05341591       0.47569352
H        0.12333469       0.52595156       0.87263244
H       -0.71778220       0.15148079       0.64023679
H       -0.36493471       0.16929325       1.60382652
H        0.81446564      -0.86707669       1.00228345
H        0.46372065      -0.85017771       0.09412414
H        0.04427862      -0.85017771       1.59775567
H       -0.09478167      -1.24908888       0.85718966
H        0.60885823       0.02760339       1.46119213
H       -0.79262590      -0.66218001       1.16977954
H       -0.55310798      -0.72579080       0.15666416
