12
Properties=species:S:1:pos:R:3 pbc="F F F"
H        0.00000000       0.00000000       0.00000000
H        0.49089283       0.77460212       0.32722577
H       -0.12595385       1.35779285       0.80414253
H       -0.03612808       1.41120875      -0.21683842
H        0.05695029       0.79439902      -0.64731038
H       -0.90395594       0.05067664       0.35826868
H       -0.83587843       0.27774018      -0.62313312
H       -0.82646561       1.20376098      -0.65506274
H       -0.92268270       0.92736602       0.89155000
H       -0.92792988       1.58740640       0.20628303
H       -1.41098094       0.84507567      -0.04815435
H       -0.12595385       0.39236170       0.93064767
