21
Properties=species:S:1:pos:R:3 pbc="F F F"
H        0.00000000       0.00000000       0.00000000
H       -0.51304650      -0.77136850      -0.44169885
H       -0.35576329      -1.60309958       0.03949386
H        0.16300938      -1.28934252       0.93199521
H        0.75860167      -0.36585209       0.58651483
H        0.61242712      -1.68749285       0.09904257
H       -0.10232902       0.01689900       0.96814466
H        1.02519560      -0.94225204       0.64178133
H        0.25369734      -0.83190012       1.28570771
H        0.49855834      -0.81647241      -0.37166697
H       -0.10937953      -1.57013309      -0.26935393
H        0.87652528      -0.42181689      -0.29158437
H       -0.75594872      -0.24729286       0.22228420
H       -0.58962202      -0.75278008       1.10407650
H       -1.02612531      -1.21114492       0.25930589
H       -0.43245137      -1.62714958       0.82748640
H        1.69016457      -1.07708490       0.85269344
H        0.97046560      -1.42417538       1.40913081
H        1.33933842      -0.32542670       0.45235765
H        0.49638033      -0.83869374       0.56178892
H        0.11601191      -0.66481680       0.57686055
