21
Properties=species:S:1:pos:R:3 pbc="F F F"
H        0.00000000       0.00000000       0.00000000
H        0.15607943       0.96046287      -0.03480161
H        0.32321510      -0.37845421      -0.83687836
H        0.61851043       1.17830133      -0.86351442
H        1.12263918       0.79984713      -0.12143117
H        1.17887759       0.42464066      -1.12050676
H        0.74647850       0.37845421       0.49759740
H        0.26287127       0.30663255      -1.42883670
H        1.34855139      -0.14721477      -0.13134989
H        0.44558209      -0.61076283       0.02061553
H        1.19481838      -0.01260212      -1.23660815
H        0.92687964       0.61632091      -0.71548760
H        0.97611034      -0.55734694      -0.85631686
H       -0.22990143       0.40936196      -0.85301179
H        1.67394328       0.27215341      -1.07069957
H        0.63436007      -0.57988685       0.01475254
H       -0.62792671      -0.43734866      -1.44706821
H       -0.62792671      -0.43734866      -1.44706821
H       -0.60032880      -0.51559877      -1.47619736
H       -0.60368609      -0.47653282      -1.47852135
H       -0.60368609      -0.47653282      -1.47852135
