21
Properties=species:S:1:pos:R:3 pbc="F F F"
H        0.00000000       0.00000000       0.00000000
H       -0.77018702      -0.01689900       0.59547228
H       -0.51678419      -0.76430750      -0.06064618
H       -0.82969582      -0.98497444       0.93105012
H       -0.02898490      -1.23561800       1.42511559
H       -0.14486729      -1.63452911       0.48662472
H        0.20732693       0.26419187       0.96981549
H       -0.24011077      -0.23736370       1.53574133
H        0.35465053      -0.95566529      -0.11937620
H        0.67968816      -0.50717664       1.45477879
H       -0.42798638      -0.32389182       1.52237082
H        1.80646110      -0.69141001       1.76909518
H        0.82415116      -0.34576523       0.47698951
H        2.47214746      -1.33427763       2.21283722
H        3.10412598      -1.70012975       1.49167204
H        2.21971774      -1.41867089       1.27623808
H        2.75310564      -0.41584700       2.37286425
H        3.32829475      -0.06875652       1.66806173
H        2.14543700      -0.44076642       0.89140844
H        2.42052817       0.20210114       1.64265406
H        2.87734604      -0.96650314       0.70101947
