21
Properties=species:S:1:pos:R:3 pbc="F F F"
H        0.00000000       0.00000000       0.00000000
H        0.13252793       0.60990006       0.74734145
H       -0.34069535       0.96807545       0.00897128
H       -1.33698559       1.02149141       0.24954671
H       -1.58122742       0.49553984       1.09633172
H       -0.96552014       0.12438690      -0.32499641
H       -1.67621243       0.05341595       0.28239420
H       -0.91957718      -0.55648410       0.22251166
H       -0.65147460       1.19768906       0.95976973
H       -1.21659029      -0.37171313       1.13119411
H       -0.97492504       0.33220106      -0.36716354
H       -0.19362795      -0.35390067       1.05023360
H       -0.79852349       0.24300367       1.37517762
H       -0.87281120       0.99123442       1.01516294
H       -0.56136441       0.29614303       1.51166928
H        0.55841744       0.72790813       1.61495495
H       -0.09954076      -0.27800763       0.66922659
H        0.09280795       1.86828876      -0.52221787
H        0.11118275       1.86828876      -0.50667709
H        0.59192121       0.62679905       1.60567307
H        0.69333434       1.57650638       0.92521572
