21
Properties=species:S:1:pos:R:3 pbc="F F F"
H        0.00000000       0.00000000       0.00000000
H        0.45934626      -0.55622131       0.73002923
H        0.70148075       0.49504808      -0.56229526
H        1.52999163       0.51194710      -0.05107617
H        0.09562084       0.34709048       0.90467989
H        0.81740957      -0.46966103      -0.24355888
H        1.39404869      -0.48747349       0.60526031
H        0.96286058       0.02696949       1.32536340
H        0.21192601       0.87887621       0.17607355
H        1.09206545       1.16529405       0.10967034
H        1.52999163      -0.01575011       0.76721263
H        1.53202593       0.19142160      -0.22474137
H        0.71782523       0.94540012       1.11440432
H        1.62670946       0.51391053       0.91174704
H        0.56501240       0.24854439       0.71873677
H        1.67953527       0.81820357       0.80426979
H        1.59681106       2.11089993       0.47234443
H        0.74478567      -1.37128508      -0.83171457
H        1.55751371       2.13190031       0.46953285
H        1.59681106       2.11089993       0.47234443
H        1.60922790       2.11089993       0.45440727
