21
Properties=species:S:1:pos:R:3 pbc="F F F"
H        0.00000000       0.00000000       0.00000000
H       -0.58002573       0.67024595       0.51736289
H       -0.04654527       1.33132863       0.99320877
H       -0.37894964       0.51876515       1.45793867
H        0.93156964       0.28314662      -0.00817510
H        0.13923061       1.04870009      -0.01883078
H        1.23039603       0.13166583       0.90605533
H        0.45255524      -0.45415503       0.58186185
H        0.48508263       0.85932082       1.57880092
H        0.94128561       1.20836902       0.60128009
H        0.30431390      -0.09501654       1.51080215
H        1.14261007       0.27349997       1.05173779
H        0.70005131       0.94417715       1.56322217
H        0.77106506       0.55992860      -0.03029555
H        1.37775731      -0.63892603       0.34119225
H       -0.54340786      -0.35995525       0.72752088
H        0.50654173       0.57692355       0.32237709
H        0.38518333      -1.41958618       0.68893462
H        0.26163077      -0.16286653       1.65850925
H        0.33644927       0.83142442       1.23659837
H        0.30206418       1.82163870       1.30538750
