21
Properties=species:S:1:pos:R:3 pbc="F F F"
H        0.00000000       0.00000000       0.00000000
H       -0.50107276      -0.25064358       0.79634464
H       -0.13102630       0.70502174       0.74072725
H       -0.40103075       0.41043904       1.50417399
H        0.02220625      -0.68213320       1.56661713
H        0.68696040      -0.04625881       1.88571990
H        0.97542870      -0.57221037       1.05296254
H        0.63333935       0.72254789       0.36073494
H        0.92880481       0.04365265       0.16827822
H        0.31401727       1.05330658       1.14535427
H        0.55245829       0.18082550       1.80659771
H        1.18707955       0.37485152       0.97334701
H        0.54046607       0.33075869       1.83815241
H        1.50421739      -0.50033695       1.71012080
H        1.50114775      -0.44877088       1.65757966
H        1.48809457      -0.39748603       1.70855963
H        1.31166220      -0.58545554       1.73793077
H        1.42446983      -0.50606436       1.66647434
H        1.39980245      -0.21699709       1.67331839
H        0.36516279      -0.31967419       0.48908663
H        0.36516279      -0.31967419       0.48908663
