21
Properties=species:S:1:pos:R:3 pbc="F F F"
H        0.00000000       0.00000000       0.00000000
H       -0.72715116       0.63587439       0.12237607
H       -0.81995249      -0.13872772      -0.46023911
H       -0.37348005       0.26419187       0.91871601
H       -0.56554842      -0.97045875      -0.02255997
H       -1.26435971       0.45110342       0.91315264
H       -1.59625483       0.13579491       0.05379993
H       -0.19206861      -0.70626688       0.89615607
H       -0.84473109      -0.34329560       1.40930378
H       -1.03574717      -1.13769460       0.78820235
H       -1.39307976      -0.79060411      -0.04839939
H       -0.04277045      -0.09376937       0.08441100
H       -1.03061497       1.62231660      -0.34164160
H       -1.01414347       1.62231660      -0.35200572
H       -1.03169119       1.60248065      -0.38101089
H       -1.03061497       1.62231660      -0.34164160
H       -1.03061497       1.62231660      -0.34164160
H       -1.03169119       1.60248065      -0.38101089
H       -1.04916966       1.60248065      -0.37001318
H       -1.03061497       1.62231660      -0.34164160
H       -1.03169119       1.60248065      -0.38101089
