21
Properties=species:S:1:pos:R:3 pbc="F F F"
H        0.00000000       0.00000000       0.00000000
H        0.87909138       0.39891118       0.34841394
H        0.81309354       0.14826760       1.28696764
H        0.95872360      -0.39548784      -0.29649907
H       -0.37055480      -0.63587439       0.63750589
H        0.26344001      -0.68929029       1.44281411
H        0.13773507      -0.93432617      -0.20266771
H        0.00724015       0.19585663       0.97448575
H        0.31604248      -1.35842228       0.88211286
H        1.23197961      -1.16366374       0.46205091
H        1.57268977      -0.34849733       0.46514311
H        1.18487120      -0.96321189       1.18974411
H        1.05183923      -1.15216470       0.05232418
H        0.32568228      -1.42937422       0.67649502
H        0.06106472      -0.86513329       1.10080254
H        0.06217134      -0.90431744       1.06110752
H        0.07395995      -0.90431744       0.98267239
H       -0.70498919      -0.00345176       1.12979686
H        0.12399696       0.35851642      -0.35259974
H        0.12442139       0.31218240      -0.35742390
H        0.12442139       0.31218240      -0.35742390
