21
Properties=species:S:1:pos:R:3 pbc="F F F"
H        0.00000000       0.00000000       0.00000000
H        0.63883960       0.60990006      -0.40983751
H        0.69809198      -0.41172725      -0.48788071
H       -0.20321949       0.87984765      -0.36418515
H        0.26740605       1.00881124      -1.27945292
H       -0.26210502      -0.70907992      -0.61365098
H       -0.87942857       0.08895500      -0.52155191
H       -0.68704557      -0.27759033      -1.44224381
H        0.03718527       0.26140273      -1.94406021
H        0.87872624       0.19233882      -1.39340198
H        0.32862946      -0.65566403      -1.45120907
H       -0.63130289       0.68508905      -1.27640092
H        0.69810081      -0.45389956      -0.54848921
H        0.58045626      -0.61630112      -1.28714049
H        0.57937384      -0.60482591      -1.22289801
H        0.34222788      -0.57594639      -0.75906903
H        0.31800735      -0.60431659      -0.81772387
H        0.30459982      -0.65814447      -0.91640306
H        0.21875912      -0.63172704      -0.98617995
H        0.32349443      -0.51674110      -1.02328825
H        0.43685210      -0.34977126      -0.18668962
