21
Properties=species:S:1:pos:R:3 pbc="F F F"
H        0.00000000       0.00000000       0.00000000
H        0.05110265      -0.33235219      -0.96966726
H        0.31291646      -0.91817307      -0.16867334
H       -0.31950724      -0.66752946       0.52794629
H       -0.23634386      -1.35794950      -0.84170431
H       -1.21448314      -1.34013700      -0.53146225
H       -0.93773609      -0.01689900       0.26158425
H       -0.85100877      -0.73260111      -1.12359858
H       -1.32851529      -0.94526964       0.26547655
H       -1.59506106      -0.36052412      -0.60121453
H       -0.44501090      -1.50136387       0.01434433
H       -0.73229408       0.28236237      -0.72119284
H       -1.08051252       0.10302398       0.15620667
H       -1.03521419      -0.67101687      -1.80706286
H       -2.62108684       0.00591549      -0.90693337
H       -2.55650592       1.02754283      -0.98062801
H       -2.58460760       0.04285130      -0.97344685
H       -2.59711456       0.00591549      -0.97815156
H       -2.59706116       0.04285130      -0.93849015
H       -2.60972571       0.00591549      -0.94275308
H       -1.08807039       0.22366321      -1.30698514
