21
Properties=species:S:1:pos:R:3 pbc="F F F"
H        0.00000000       0.00000000       0.00000000
H       -0.81573808      -0.52769721      -0.06456009
H       -0.80876899       0.37845421       0.38823459
H       -0.16803974       0.97931916      -0.25694472
H       -0.50351739       1.03273511      -1.22541022
H        0.22227818       0.33591837      -1.02294755
H       -0.20503148      -0.59148854      -0.91976458
H       -1.37503397       0.50678355      -1.35639787
H       -1.17120314      -0.47348043      -0.89432311
H       -1.27000618       0.96427506      -0.31702992
H       -0.53631306       0.07706982      -1.59817302
H       -0.68202484       1.01495171      -1.09147859
H       -0.35356462       0.59573853      -1.40124571
H       -1.52672684      -0.02920651      -0.17005706
H       -0.26041952      -0.61586303      -0.84677136
H       -0.69325030      -0.52014315      -0.05486601
H       -0.16079187      -0.22031677      -0.45222813
H        0.74793267       0.92864251       0.06937939
H       -0.07758088       0.11825895      -0.32438028
H       -1.71284604      -1.55168462      -1.16612601
H       -1.70297360      -1.55168462      -1.18496728
