12
Properties=species:S:1:pos:R:3 pbc="F F F"
H        0.00000000       0.00000000       0.00000000
H       -0.50007260       0.47200781      -0.61275923
H       -0.79464602       0.37845421       0.41637853
H       -0.77172655       1.22566843      -0.05935109
H        0.40231752       0.67024595      -0.66500741
H        0.01167011       1.84038305       0.18912338
H       -0.46084365       1.19751549       0.83470529
H        0.72507918       1.40205717      -0.10972524
H        0.50965917       1.18061650       0.75789660
H        0.09702200       0.36064175       0.92425132
H        0.74787563       0.59041452       0.18502456
H       -0.04374763       1.38360047      -0.73146147
