21
Properties=species:S:1:pos:R:3 pbc="F F F"
H        0.00000000       0.00000000       0.00000000
H       -0.26684549      -0.92909771       0.11675546
H       -1.27877605      -0.94691014       0.28705853
H       -1.58845639      -0.05311936       0.05619706
H       -1.52733350      -0.30404258       1.04749548
H        0.11552072      -0.35216528       0.72444201
H       -0.26953804       0.54162550       0.69396722
H       -1.27416039       0.41723859       0.86304039
H       -0.75125217      -0.88723338       1.12264371
H       -0.85180515       0.55761105      -0.01950830
H       -0.87830067      -0.33219558      -0.43062490
H       -0.65189618      -1.01805270       1.06393385
H        0.11607581      -1.82288849       0.16745292
H       -0.73012626      -0.16595221       1.42158890
H        0.27611187      -1.80497360      -0.35069457
H        0.06341627      -2.59937263      -0.96470976
H       -0.44443044      -0.28973678       0.25891578
H        0.00872930      -1.17392707       0.15515338
H       -1.58154881       1.02417743       1.06794333
H        0.85402668      -2.58247352      -0.39663368
H       -0.58025539      -3.15559387      -0.39057696
