21
Properties=species:S:1:pos:R:3 pbc="F F F"
H        0.00000000       0.00000000       0.00000000
H        0.19410905      -0.89379078       0.33394706
H        1.00026214      -0.22961354      -0.00877792
H        1.54591131       0.10273865       0.79442376
H        0.75792736       0.58319080       0.18301782
H        0.19410905      -0.84585345       1.25375128
H        1.13445389      -0.72146654       0.86182857
H       -0.04451931       0.06080347       1.51660228
H        0.85091370      -0.31765074       1.57167602
H        0.93258512       0.71745324       1.34148955
H       -0.05389136       0.60100323       0.81067777
H       -0.53814030      -0.30796993       0.75101864
H        0.91552025       0.76812989       0.36927474
H        1.43927562       0.03174517       0.73748177
H        0.95455885      -0.37928447       0.39362109
H        0.95468384      -0.33820358       0.39219999
H        1.03716338      -0.33820358       0.40238440
H        0.44754350       1.73643112       2.24774218
H        0.44754350       1.73643112       2.24774218
H        0.44754350       1.73643112       2.24774218
H        0.47964698       1.73643112       2.26420641
