21
Properties=species:S:1:pos:R:3 pbc="F F F"
H        0.00000000       0.00000000       0.00000000
H        0.11786898      -0.15148079      -0.95457917
H        0.63883960      -0.60990006      -0.40983751
H        0.12971407      -0.79467106       0.39930514
H        0.16733608      -1.45575368      -0.31456831
H        0.14677039      -1.10494816      -1.16224635
H       -0.68773955      -1.35089231       0.12414825
H       -0.81048447      -0.49504808       0.38905805
H       -0.65668845      -1.57460916      -0.87600648
H       -0.86370409      -0.01781246      -0.55409557
H       -0.73093700      -0.69558620      -1.26281226
H       -1.24774742      -0.86552924      -0.56630349
H       -0.83741403      -0.43403965       0.26961941
H       -0.53817022      -0.26871949      -0.17569873
H        0.92841703      -1.30576253       1.01682436
H        0.94196874      -1.27041602       1.02730191
H        0.94196874      -1.27041602       1.02730191
H        0.94196874      -1.27041602       1.02730191
H        0.94196874      -1.27041602       1.02730191
H        0.94196874      -1.27041602       1.02730191
H        0.96350753      -1.27041602       0.99840951
