21
Properties=species:S:1:pos:R:3 pbc="F F F"
H        0.00000000       0.00000000       0.00000000
H        0.88791460       0.34709048      -0.19798161
H        0.70322394      -0.06227148       0.66594720
H        0.70322394       0.70909703       1.34293652
H        0.06951064       0.81063855      -0.60866636
H        1.32149363       0.62014204       0.52859408
H        0.92296982       1.31896400      -0.15008672
H       -0.13998765       0.22961354       0.99045694
H        0.79259574       1.60211062       0.77235109
H       -0.04590273       1.20827007       1.14806879
H        0.80609405       1.45770407       0.82215333
H       -0.53426182       0.71292222       0.23376068
H       -0.07201818       1.58200705       0.05336392
H       -0.15986982       1.17647028       1.06939077
H       -0.55533528       0.94958442       0.40064093
H       -0.50058019       0.99239284       0.52542830
H       -0.26625800       0.93610191       0.96196079
H       -0.60895425       1.47932971       0.85072172
H       -0.34183261       0.70613110       0.71707499
H       -0.43206066       0.70613110       0.67278427
H        0.26443034       2.60098505      -0.91790420
