21
Properties=species:S:1:pos:R:3 pbc="F F F"
H        0.00000000       0.00000000       0.00000000
H       -0.04850490       0.68549418       0.68978679
H       -0.49484679       0.18477097      -0.81795305
H       -0.87011772       1.07945108      -0.48322442
H       -1.46049535       0.24188912      -0.42605790
H       -0.84006989      -0.58582085      -0.06648578
H       -0.57527596       1.29728961       0.41881523
H       -0.55037087      -0.14623684       0.75623208
H       -1.02546573       0.73891008       0.99965501
H        0.02821386       0.83374155      -0.26984075
H       -1.46049535      -0.02230275       0.56567109
H       -1.51633930       0.88435417       0.21507791
H       -0.43959454       0.02889371      -0.78416920
H       -0.80114621      -1.71223044      -0.16726816
H       -0.79763329      -1.71223044      -0.16584009
H       -0.81694353      -1.70780849      -0.21167499
H       -0.57099271       0.88368297      -0.87242103
H       -0.69468331      -1.70780849      -0.08833715
H       -0.69310135      -1.70780849      -0.06261576
H       -0.05692729       0.86239445       0.80956131
H       -0.83480173       0.73758376      -0.76803660
