21
Properties=species:S:1:pos:R:3 pbc="F F F"
H        0.00000000       0.00000000       0.00000000
H        0.35866648      -0.83756196      -0.47241095
H        0.76070553      -1.48042953       0.21926084
H       -0.12892029      -0.31530851       0.91215187
H        0.92917234      -0.42820001       0.20213106
H        0.87052298      -0.92717969       1.03618169
H        0.12281573      -1.69826806       0.92190146
H        0.72356594      -0.71421969       1.32137191
H       -0.16066954      -0.94660985       1.37243867
H       -0.75376332      -0.49897972       0.36183012
H        0.66660875       0.26419187       0.73427463
H       -0.57465535      -0.71317506      -0.06404573
H       -0.70547551      -1.34027088       0.73721409
H        0.26955229      -0.32990211       0.34068730
H       -0.14761460      -1.59205878       0.11518743
H        0.03378028      -0.17793280       0.47052032
H        0.00184026      -0.93643361       0.25450853
H       -1.64989018      -0.92790890      -0.34374279
H       -1.64989018      -0.92790890      -0.34374279
H       -1.63162827      -0.96633875      -0.37898570
H       -1.63162827      -0.96633875      -0.37898570
