21
Properties=species:S:1:pos:R:3 pbc="F F F"
H        0.00000000       0.00000000       0.00000000
H       -0.13959605      -0.55577880       0.78719991
H        0.59639817      -0.43139189       1.49158919
H       -0.31204402      -0.11608338       1.64447570
H        0.63920164       0.43739378       1.79443753
H       -0.17051978       0.87984765       0.38059428
H        0.10406017       1.13421059       1.26397169
H        0.69150454      -0.49504808       0.57451963
H       -0.61175966       0.34746471       0.77924883
H        0.75243115       0.49917299       0.18169063
H        1.14762878       0.14082631       1.15389442
H        0.87421441       0.99317259       1.03027797
H       -0.43707758       0.72836685       1.30474865
H        1.22811830       0.11455923       1.07046580
H        1.53021526       0.16163275       0.36950326
H        1.58464551       0.08981103       0.47817513
H       -0.47796577      -0.55668181       0.39875007
H       -0.47514588      -0.59768844       0.39917386
H        1.29866767       1.81723845       0.38125879
H       -0.47796577      -0.55668181       0.39875007
H        0.65716916       0.21291965       1.79926109
