21
Properties=species:S:1:pos:R:3 pbc="F F F"
H        0.00000000       0.00000000       0.00000000
H        0.83968246      -0.37845421      -0.31585881
H        0.27925566      -0.95566529       0.24908623
H       -0.59965652      -0.77136850       0.31420794
H        0.72859198      -1.39083385      -0.44262671
H        0.21323425       0.09120682      -0.89468694
H       -0.91748774      -1.10372066      -0.60331547
H       -0.76684952      -0.14325780      -0.54964912
H       -0.19642180      -1.68928564      -0.11308169
H        0.68770361      -0.76643562      -1.19907534
H        0.08843994      -1.52009630      -1.05437040
H       -0.22925571      -0.65525192      -1.36929023
H       -0.78537381      -1.15030003      -0.66290236
H       -0.19268666       0.73255098       0.76835424
H       -0.09798150       0.53402436       0.45832869
H       -1.12755167      -0.22554624       1.15318084
H       -1.11561131      -0.29562354       1.20186114
H        0.31035987      -1.30794835      -1.17704690
H       -1.07755578      -0.15809882       1.13639009
H       -1.07755578      -0.15809882       1.13639009
H       -1.22977221      -0.00788134      -0.75193775
