21
Properties=species:S:1:pos:R:3 pbc="F F F"
H        0.00000000       0.00000000       0.00000000
H       -0.93989587      -0.24138860      -0.47165081
H       -0.12814361       0.46354809       0.90665668
H        0.06306279      -0.49504808       0.89681339
H       -0.41542876      -0.79349989       0.03931922
H       -0.70816934      -0.20669785       1.42401958
H       -0.83177984      -0.99009615       0.98346138
H       -1.73740005       0.14322515       0.14494184
H       -0.69489211       0.66108263       0.16779646
H       -0.87721843       0.66917670      -0.04685605
H       -1.36230218      -0.88982904       0.02778456
H       -1.13621008       0.56467068       0.89952391
H       -1.65302300       0.03926867       0.04566534
H       -1.49633241      -0.50269461       0.79222041
H       -1.46659994      -0.51509154       0.82585561
H       -1.84703088       0.68905759       1.62930846
H       -1.62311220       0.67629993       1.67334747
H       -1.50240374      -0.14648533       1.05974817
H       -2.00600243       0.86312246       1.35527766
H       -1.96140647       0.82886255       1.44959426
H       -0.98595136       0.51459730       1.55402303
