12
Properties=species:S:1:pos:R:3 pbc="F F F"
H        0.00000000       0.00000000       0.00000000
H        0.75986940       0.40936196      -0.45064643
H        0.25467122       0.90441000       0.29301074
H       -0.07025254       0.26853561       0.95493913
H        1.54240239       0.00000000      -0.04061493
H        0.76734734      -0.13037556       1.39382446
H        1.24803090       0.84913838       0.26793268
H        0.35992685      -0.62935531       0.66369522
H        0.73714691       0.81545502       1.19446969
H        0.79193395      -0.52769721      -0.20600305
H        1.56303453       0.18805575       0.90965176
H        1.29510927      -0.59392369       0.64555031
