21
Properties=species:S:1:pos:R:3 pbc="F F F"
H        0.00000000       0.00000000       0.00000000
H        0.38154608      -0.49897972      -0.74397767
H       -0.13321491      -1.01761651      -0.00584884
H        0.05821092      -0.55406845       0.88958579
H        1.04306412      -0.64302343       1.16431332
H        0.52549458      -1.38579941       0.69482839
H        0.90604109       0.18477097      -0.30497557
H        1.38562083      -1.11795807       0.50304288
H        1.50989914      -0.17336240       0.45048946
H        1.35390019      -0.72859323      -0.50918192
H        0.70944160      -1.38967586      -0.19982150
H        0.75128013       0.18870759       0.75061476
H        1.39407635      -0.69379759      -0.48751879
H        1.08626008      -0.53589177       0.58251780
H       -0.58828539       0.47802973      -0.08841839
H        0.63440031      -0.86280841      -0.23457079
H        1.09510767       1.09142792      -0.00449604
H        1.09510767       1.09142792      -0.00449604
H       -0.11043268       0.00053759       0.27398336
H       -0.06141067      -0.03995046       0.33992106
H       -0.07621336      -0.08016774       0.30110854
