12
Properties=species:S:1:pos:R:3 pbc="F F F"
H        0.00000000       0.00000000       0.00000000
H        0.65604281      -0.46966103       0.54505712
H        0.12466377      -0.86857224       1.32725286
H       -0.31191593      -0.73385286       0.32922757
H       -0.87765574       0.01689900       0.42130238
H       -0.78907967      -0.56892186       1.25933099
H       -0.12928587      -0.17001069       1.93672752
H        0.64574331       0.55196631       0.64250195
H       -0.77136266       0.44345778       1.42695343
H       -0.33527410       0.85041809       0.59943008
H        0.14306110       0.78157985       1.50732112
H        0.72983450      -0.09090126       1.43809843
