12
Properties=species:S:1:pos:R:3 pbc="F F F"
H        0.00000000       0.00000000       0.00000000
H       -0.78841746      -0.36585209      -0.54577839
H       -0.35602629       0.84879911       0.31756309
H       -0.48570397       0.58582085      -0.68864322
H       -1.19891131       0.76440591       0.79765010
H       -1.65074730      -0.38275108      -0.09393492
H       -1.23029780       1.00027990      -0.08339044
H       -1.29329550      -0.25722140       0.82397884
H       -0.72660184      -0.63369346       0.33329934
H       -1.47775197       0.31964210      -0.60033453
H       -0.38445181       0.08986908       0.78407586
H       -1.86363721       0.27773201       0.27734438
