21
Properties=species:S:1:pos:R:3 pbc="F F F"
H        0.00000000       0.00000000       0.00000000
H       -0.06381270       0.34709048       0.90747839
H        0.79841948       0.03178197       0.58313715
H        1.35060430       0.80638409       0.37542474
H        0.72757268       0.86351299       1.08440065
H        0.92518902       0.19166952      -0.32776207
H       -0.13180166       1.44825852       0.79513311
H       -0.62893146       0.89203721       0.09029007
H       -0.01340270       1.62384844      -0.09311554
H       -0.52459437       0.74600166       0.08172172
H        0.25746912      -0.17864621       0.22284949
H        0.36160263      -0.26762408       0.20429158
H        0.79015982       0.91626889      -0.67738372
H        0.73970830       1.54900718       0.39301705
H        0.43410832       0.00000000       0.14612180
H        1.15334678       1.41929173       1.76107430
H        0.22958776       0.21727461       0.37834525
H        0.55631942       0.25060529       0.28441724
H        0.90712833       1.20602822      -0.32798809
H        0.31510812       0.36846626      -0.29157591
H        1.25616550       2.07087255      -0.60777044
