21
Properties=species:S:1:pos:R:3 pbc="F F F"
H        0.00000000       0.00000000       0.00000000
H       -0.92830116      -0.43148959      -0.07346868
H       -0.26041162      -0.68549418       0.64058125
H       -0.75194150      -1.01468039      -0.83297288
H        0.50262207      -0.33235219      -0.83080506
H       -0.72663361      -1.32136858       0.06930053
H       -0.45828092      -0.18087140      -0.87299377
H        0.66896582      -0.59653920       0.21435538
H        0.63656175      -1.33060646      -0.63364434
H       -0.26025242      -1.70906067      -0.61002916
H        0.21610093      -1.50613952       0.22795808
H        0.71065509      -1.32909012      -0.57669353
H        1.64853477      -0.49846059       0.77229452
H        1.62487602      -0.45939463       0.80418408
H        1.62024951      -0.42049396       0.80132926
H        1.62024951      -0.42049396       0.80132926
H        1.62487602      -0.45939463       0.80418408
H        1.64026296      -0.42049396       0.76758301
H        1.64498687      -0.45939463       0.77027369
H        1.64498687      -0.45939463       0.77027369
H        1.62835097      -0.49846059       0.80632818
