12
Properties=species:S:1:pos:R:3 pbc="F F F"
H        0.00000000       0.00000000       0.00000000
H       -0.33100656      -0.58582085      -0.77496612
H        0.37817183      -0.02959955      -1.26589155
H        0.49115348       0.06391725      -0.19695878
H        0.59890676      -0.95869726      -1.45592964
H       -0.34349695      -1.39674675      -1.48656332
H        0.45623559      -0.25407970      -0.65138859
H       -0.71338260      -1.33785224      -2.55435872
H       -1.09090042      -0.69498467      -1.84900379
H       -0.57341772      -0.04654425      -1.44891071
H       -0.05573475      -1.07001090      -1.96775985
H       -0.05979002      -1.28717566      -1.83442152
