6
Properties=species:S:1:pos:R:3 pbc="F F F"
H        0.00000000       0.00000000       0.00000000
H        0.38154608      -0.49897972      -0.74397767
H       -0.24996729      -0.98938280       0.10937058
H        0.61021435      -0.46343124      -0.08242730
H       -0.20358878      -1.25722420      -0.77065659
H       -0.13446191      -0.69009298      -0.11663920
