6
Properties=species:S:1:pos:R:3 pbc="F F F"
H        0.00000000       0.00000000       0.00000000
H       -0.02481474      -0.91159266      -0.47085762
H        0.70214248      -0.25064358       0.62628645
H        0.84124976      -1.19473934      -0.12760669
H        0.61079985      -1.31050384       0.22927660
H        0.76818985      -0.33235219       0.59392792
