15
Properties=species:S:1:pos:R:3 pbc="F F F"
H        0.00000000       0.00000000       0.00000000
H       -0.07115869       0.77136850       0.67323917
H        0.25205642       1.14982271      -0.16363919
H       -0.48804617       1.34458125      -0.84748209
H       -0.95457155       0.33235219      -0.17793031
H       -0.37342083       0.86004937      -0.75400358
H       -0.60697639       1.22498584      -0.14606422
H        0.17826407       0.64590514      -0.91186583
H       -0.01739609       0.54582226      -0.99108332
H       -2.30906129       0.35747233      -0.68744141
H       -2.62187004       0.70456278       0.16680670
H       -2.72574615       0.75638354       0.16142112
H       -2.30906129       0.35747233      -0.68744141
H       -2.30906129       0.35747233      -0.68744141
H       -2.30906129       0.35747233      -0.68744141
