21
Properties=species:S:1:pos:R:3 pbc="F F F"
H        0.00000000       0.00000000       0.00000000
H        0.69739223       0.29845181      -0.69129914
H       -0.19883323       0.79349989      -0.76222926
H        1.40578580      -0.51247406      -0.62270510
H       -0.56210726      -0.22961354       0.82742786
H       -1.23993206      -0.66938996       0.28409445
H       -0.33540791      -0.13390702      -0.34439242
H       -1.28933680       0.18825245      -0.27745038
H        0.61934626      -0.42351907       0.03068894
H        0.03576231      -0.67464948       0.38172606
H       -0.69751430       0.70839560       0.08772397
H        0.41349691      -0.16307816      -0.38309586
H        0.36471367      -0.38170832      -0.37131613
H       -0.27586055       0.62807763      -0.03272483
H       -0.55404216       0.83449084       0.17625108
H       -0.43786657      -0.15883803      -0.59774339
H        0.23365134       0.36698288       0.09215987
H        0.34029520      -0.33642882      -0.28475735
H        0.58097225      -0.23473388       0.01500183
H       -0.27402842      -0.28749251      -0.43004960
H        0.45062602      -0.23473388      -0.20478490
