21
Properties=species:S:1:pos:R:3 pbc="F F F"
H        0.00000000       0.00000000       0.00000000
H        0.52815789      -0.26419187       0.83939010
H       -0.57095873       0.77460212      -0.14852150
H        0.13119000       0.95937312      -0.79729551
H        0.65215164       0.32832882      -0.56145906
H        0.50440747       0.53872615       0.38872790
H        0.10487990       0.96805096      -1.29652739
H        0.16423801       0.27119523      -0.87654984
H        0.73159903       0.52258068       0.40587136
H       -1.04822612      -0.01979691      -0.58950889
H       -0.23358202       0.39620781      -0.48165286
H       -0.11636841       0.42002827      -1.05712628
H        0.05318940       0.53883803      -0.52176613
H       -0.01464069       0.42002827      -0.45266578
H       -0.04235578       0.45594805      -0.38368744
H       -0.07711160       0.52602535      -0.39079919
H       -0.06160468       0.52602535      -0.49397397
H       -0.06556517       0.52602535      -0.45940799
H       -1.51672685      -0.28636131      -0.71137834
H       -1.51672685      -0.28636131      -0.71137834
H       -1.51672685      -0.28636131      -0.71137834
