8
Properties=species:S:1:pos:R:3 pbc="F F F"
H        0.00000000       0.00000000       0.00000000
H        0.24483983      -0.86484438      -0.37437752
H       -0.59087723       0.55622131      -0.62833577
H       -0.27696252      -0.48023063      -1.23688650
H       -0.51262367       0.33343017      -0.75680220
H       -0.88492697       0.30550653      -1.65774703
H       -0.18045576      -0.58362329      -1.07736647
H       -0.04615046       0.01500326      -0.07562405
