8
Properties=species:S:1:pos:R:3 pbc="F F F"
H        0.00000000       0.00000000       0.00000000
H       -0.61304885      -0.15966894      -0.80746567
H       -0.20980483       0.55622131       0.83661443
H       -0.47426087      -0.42386079       0.17450398
H       -0.99708575       0.08656028       0.50848639
H       -0.69334763       0.96558326       0.09724307
H       -0.70921826       0.79079992      -0.80693430
H       -0.44880682       0.10530573      -0.16635299
