21
Properties=species:S:1:pos:R:3 pbc="F F F"
H        0.00000000       0.00000000       0.00000000
H       -0.77018702      -0.01689900       0.59547228
H       -1.03919685      -0.63161355      -0.18111235
H       -1.29331946      -0.81150913       0.80280757
H       -0.58333826      -1.10362136      -0.82744002
H       -0.44205177      -1.61471295       0.17220712
H       -0.71426761      -0.43977645      -0.49444848
H       -0.44796717      -0.60233331       0.34065950
H       -1.52564168      -1.32879555      -1.90272415
H        0.08990866      -1.71279156       1.16612339
H        0.08990866      -1.71279156       1.16612339
H        0.08990866      -1.71279156       1.16612339
H        0.08990866      -1.71279156       1.16612339
H        0.75559497      -2.35565901       1.60986531
H       -0.53521299      -1.12960076       0.70010579
H        0.08990866      -1.42739165       1.57666802
H       -1.89182913      -1.27811897      -1.00194693
H       -1.15285814      -1.86130977      -1.25068629
H       -1.51196027      -1.75590062      -2.16232777
H       -2.69233584      -0.57350141      -0.83814698
H       -2.28620529      -0.38873044      -1.70358253
