9
Properties=species:S:1:pos:R:3 pbc="F F F"
H        0.00000000       0.00000000       0.00000000
H       -0.02074104      -0.97334045      -0.01546210
H       -0.15369426      -1.96272326      -0.25372460
H       -0.87012690       0.01689900      -0.43663993
H       -0.98319447      -0.94853216      -0.49337858
H       -0.28760281      -0.77136850      -0.61286151
H       -0.61353862      -1.19304419      -0.46461588
H       -0.58781052      -1.31002676      -0.62746978
H       -0.72203684       0.13510449      -0.46321121
