21
Properties=species:S:1:pos:R:3 pbc="F F F"
H        0.00000000       0.00000000       0.00000000
H        0.75529516      -0.29845181       0.62751859
H        1.67796516      -0.31535080       0.31694570
H        0.40460858      -0.72994137       1.49016547
H        0.83460945      -0.61361563       0.09756653
H        0.78530133       0.13490301       1.72506571
H        1.17250919       0.49557510      -0.18409398
H        0.82808548       0.68034607      -1.07588589
H        0.17783722      -1.02820611       0.64876741
H        0.28663927       0.25847983      -0.09831481
H        0.51654786       0.02327374       0.85119599
H        0.82458431      -0.71558028       0.97967589
H        1.15502334      -0.78674483       1.30316746
H        1.15523708       0.24056962      -0.27113169
H        0.37319574       0.36658904      -0.14919335
H        1.08938932       0.00451094      -0.27645206
H        0.70118952       0.09560055      -0.17805666
H        0.58236605      -0.67104691       0.37418842
H        0.61791974       0.03410769      -0.23783243
H        0.65866899      -0.59279680       0.39603782
H        0.90140188       0.07884330      -0.38223112
