13
Properties=species:S:1:pos:R:3 pbc="F F F"
H        0.00000000       0.00000000       0.00000000
H        0.21426670       0.05341591       1.00227761
H       -0.26123178       0.24817449       1.89069986
H       -0.67399776       0.95725441       2.41500020
H       -0.73763072       0.37845421      -0.51062149
H       -1.51370287       0.61016393       2.06502247
H       -0.69522160      -0.16442259       0.73128271
H       -1.59892237       0.66084057       1.09639955
H       -1.59214354      -0.23295021       0.71019626
H       -0.92468661      -0.06008202       1.55791879
H       -1.15215445       0.53812313       0.41458112
H       -0.69293034       0.97598034       1.33638155
H       -1.30090380      -0.16551071      -0.13514754
