8
Properties=species:S:1:pos:R:3 pbc="F F F"
H        0.00000000       0.00000000       0.00000000
H        0.05110265      -0.33235219      -0.96966726
H        0.73545718      -0.91817307      -0.47793901
H        1.12728620      -0.33498228       0.19616741
H        0.67013741      -0.48668349       0.45097113
H        0.92009938       0.25239334      -1.22859728
H        0.67337143       0.64286757      -0.43199086
H        1.47948885       0.07760999      -0.51805377
