21
Properties=species:S:1:pos:R:3 pbc="F F F"
H        0.00000000       0.00000000       0.00000000
H        0.59380746      -0.49897972      -0.58861941
H       -0.22347921      -0.16662753      -1.11293674
H        0.31783131      -0.33235219      -0.91752344
H       -0.95583004       0.16170129      -0.66105151
H       -1.06836176       0.52814090       0.40362191
H       -0.91745627       0.45298979       0.43171978
H       -0.91825783       0.52814090       0.40889299
H       -0.95583004       0.52814090       0.40955245
H       -1.03177488       0.49076357       0.41895831
H       -0.99340236       0.52814090       0.40889299
H       -0.91783416       0.49076357       0.42095828
H       -0.95583004       0.52814090       0.40955245
H       -0.91783416       0.49076357       0.42095828
H       -0.95583004       0.49076357       0.42162514
H       -0.95583004       0.49076357       0.42162514
H       -0.91745627       0.45298979       0.43171978
H       -1.02999079       0.56507671       0.39358556
H       -0.99340236       0.52814090       0.40889299
H       -0.95583004       0.49076357       0.42162514
H       -0.86445367       0.36585209       0.41496497
