21
Properties=species:S:1:pos:R:3 pbc="F F F"
H        0.00000000       0.00000000       0.00000000
H       -0.58002573       0.67024595       0.51736289
H       -0.30719152       1.37932587       1.12631941
H       -1.56921601       0.44063240       0.36868912
H       -0.20327884       0.05067664       0.95087880
H       -0.33726582       0.64033669       1.98274302
H       -0.53952682      -0.02990925       1.23228669
H        0.12120256       0.38969311       1.16113150
H       -1.61946154       1.52845979      -0.58471650
H       -1.74503815       1.56093884      -0.53068584
H       -1.68621480       1.52845979      -0.57884347
H       -1.64607477       1.59206796      -0.50490367
H       -1.61744440       1.56093884      -0.54644078
H       -1.68621480       1.52845979      -0.57884347
H       -1.68621480       1.52845979      -0.57884347
H       -1.64953065       1.56093884      -0.54418457
H       -1.64607477       1.59206796      -0.50490367
H       -1.68621480       1.52845979      -0.57884347
H       -1.68151784       1.56093884      -0.54080367
H       -1.68151784       1.56093884      -0.54080367
H       -1.68151784       1.56093884      -0.54080367
