21
Properties=species:S:1:pos:R:3 pbc="F F F"
H        0.00000000       0.00000000       0.00000000
H        0.42017129      -0.49897972       0.72286665
H        0.37003270      -0.66108263      -0.61164248
H        0.51024127      -1.46400070      -0.18268788
H       -0.13476971      -0.12052551       1.42775941
H       -0.17591369      -1.11460483       0.57311708
H        0.58139980      -0.69263220       0.49055135
H       -0.88902748      -0.24744186       1.14403439
H       -0.89851999      -0.24744186       1.17067921
H       -0.70824873      -0.95237112      -0.43017286
H        0.08009171      -1.00578701       0.22480053
H       -0.08058786      -0.50733519      -0.83283883
H       -1.08875942      -2.34765482      -0.48736304
H       -1.08875942      -2.34765482      -0.48736304
H       -0.73633707      -2.29423881       0.47506571
H       -1.08651805      -2.34765482      -0.50068152
H       -0.08501434      -2.23534441      -0.44839585
H       -0.72035974      -2.39312768      -0.56782889
H       -0.70582354      -2.39312768      -0.56833935
H       -0.70582354      -2.39312768      -0.56833935
H       -0.72035974      -2.39312768      -0.56782889
