8
Properties=species:S:1:pos:R:3 pbc="F F F"
H        0.00000000       0.00000000       0.00000000
H        0.36038706      -0.22961354      -0.93312520
H       -0.80215883      -0.61471456      -0.17886049
H       -0.36590651      -0.79948556      -1.02951002
H       -0.75085747       0.08036208      -1.18995237
H       -0.92040431      -0.25199011      -0.23385620
H       -0.04377002       0.54498857      -1.36290371
H       -0.18528998       0.00102365      -0.70091480
