7
Properties=species:S:1:pos:R:3 pbc="F F F"
H        0.00000000       0.00000000       0.00000000
H       -0.47549847       0.19475858       0.88842231
H        0.69942659       0.61471456       0.43156967
H        0.50191540       0.67024595       0.59344357
H       -0.00316674       0.73872352       1.37335539
H        1.00035715       1.08811939       1.18630028
H        0.20948139       0.40475726       1.27857041
