7
Properties=species:S:1:pos:R:3 pbc="F F F"
H        0.00000000       0.00000000       0.00000000
H       -0.32486421      -0.96807545       0.10303906
H       -0.38617718      -0.85764241      -0.41065878
H        0.44502926       0.80291802       0.07489622
H       -0.10362166       0.09383810      -0.30490482
H        0.10687861       0.31429872      -0.48404723
H       -0.60425723      -0.14400959      -0.62037361
