9
Properties=species:S:1:pos:R:3 pbc="F F F"
H        0.00000000       0.00000000       0.00000000
H        0.83968246      -0.37845421      -0.31585881
H        0.50237936      -0.89468008      -0.02205708
H       -0.62110400       0.47064883       0.38324213
H       -0.11439306      -0.97451150       0.65732247
H       -0.13662902      -0.28895283      -0.21040463
H        0.03476782       0.10525072       0.96118999
H        0.61654615      -0.66935140       1.05910039
H        0.04534000       0.10525072       0.95576811
