6
Properties=species:S:1:pos:R:3 pbc="F F F"
H        0.00000000       0.00000000       0.00000000
H       -0.01035373      -0.77460212      -0.58986890
H       -0.31188595      -0.45929360      -1.46034002
H       -0.20846865      -0.11351949       0.09699446
H       -0.56952953       0.31205410      -1.15571308
H       -0.43987730       0.23156768      -0.94996375
