9
Properties=species:S:1:pos:R:3 pbc="F F F"
H        0.00000000       0.00000000       0.00000000
H        0.42330277      -0.73181123      -0.48304045
H       -0.01376706      -1.58061028      -0.29180509
H        1.33618140      -1.03026307      -0.12123546
H        0.50396371      -1.52924275      -0.04065146
H        0.30128634      -0.64286757       0.74112868
H       -0.02295575      -0.64844042       0.65370929
H        0.50004756      -1.49165523       0.59216636
H        1.02584422      -0.46313184       0.45859906
