21
Properties=species:S:1:pos:R:3 pbc="F F F"
H        0.00000000       0.00000000       0.00000000
H        0.93511528      -0.39891118      -0.14054634
H        1.16162705      -0.83040076       0.76268846
H        1.64553130      -0.62852472      -0.84475547
H        0.66471934      -1.24640548       0.10819584
H        1.40501928      -0.39453095       0.73480111
H       -0.14333498      -0.90021324       0.67047894
H        0.61821896      -0.41289341       1.25927639
H        0.97560203      -0.83458817      -0.24720180
H       -0.63509834      -1.66989231       0.78922564
H        1.12341905      -1.27442980      -0.07620084
H        1.17089403      -1.42518020      -0.19627231
H        0.65677279      -0.56267297       0.66345751
H        1.32879424      -1.30435991      -0.06562018
H       -0.29568088      -0.69086128       0.43524539
H       -0.25221375      -0.70870632       0.43391082
H        0.64848858      -0.96911472       2.12126565
H        0.61821896      -0.96911472       2.12179708
H        0.50069517      -0.96660632       0.30894569
H        2.61170292      -0.74653280      -0.81931388
H        2.61170292      -0.74653280      -0.81931388
