9
Properties=species:S:1:pos:R:3 pbc="F F F"
H        0.00000000       0.00000000       0.00000000
H        0.02715597      -1.02162731       0.09414954
H        0.59488565      -0.25064358      -0.72893739
H       -0.78991389      -0.72317553       0.63880271
H        0.11858830      -0.80231047      -0.16578352
H       -1.03341866       0.15351385       0.16399214
H        0.63961005      -1.00768054      -0.30579466
H       -0.77595913      -0.23998594      -0.50262988
H       -0.49110886      -0.30428866      -0.06077176
