7
Properties=species:S:1:pos:R:3 pbc="F F F"
H        0.00000000       0.00000000       0.00000000
H        0.11786898      -0.15148079      -0.95457917
H        0.10452307      -0.46966103      -0.84649527
H       -0.14285761       0.34939590       1.01076281
H       -0.09564355      -0.02905831       0.11488098
H        0.62819332       0.93258667       0.89487511
H        0.64308697       0.90517473       0.86426413
