8
Properties=species:S:1:pos:R:3 pbc="F F F"
H        0.00000000       0.00000000       0.00000000
H        0.19410905      -0.89379078       0.33394706
H       -0.75806326      -0.22961354      -0.65264201
H       -1.35654855      -0.81543440      -1.24589825
H       -0.54002035      -1.14443433      -0.25451922
H       -0.20462745      -1.42148805      -0.38061982
H       -0.68661910      -1.02149785      -0.64834476
H       -0.84431452      -0.96691519      -0.43181556
