21
Properties=species:S:1:pos:R:3 pbc="F F F"
H        0.00000000       0.00000000       0.00000000
H        0.17388797      -0.66108263       0.69339287
H        0.41899088      -0.77460212      -0.41533020
H       -0.21847901      -1.55576277       0.37887788
H        0.47688553      -1.94299698       0.84240305
H       -0.89742696      -1.37099183      -0.29413795
H        0.53087473      -1.33038092       0.37628385
H       -0.01543266      -0.90744376      -0.04810321
H       -1.74314523      -1.74357009      -1.40805960
H       -1.77300787      -1.79188538      -1.36702275
H       -1.74314523      -1.74357009      -1.40805960
H       -1.78935933      -1.69480586      -1.38705897
H        0.13812685      -1.21729946       0.50660419
H       -0.65649301      -0.54692596       0.44297618
H        0.04495010      -0.95904303       0.22999424
H       -0.01702765      -0.95904303       0.27878737
H       -0.05770311      -0.99739122       0.52536112
H       -0.11283484      -1.04278374       0.49266478
H       -0.05770311      -0.99739122       0.52536112
H       -0.08684966      -1.04278374       0.45215997
H       -0.03338769      -1.01953113       0.43337634
