8
Properties=species:S:1:pos:R:3 pbc="F F F"
H        0.00000000       0.00000000       0.00000000
H        0.80713278      -0.08439321       0.53802919
H        1.70462835      -0.45024529       0.20042312
H       -0.35611492       0.39891118       0.87599999
H        0.44884861       0.01167691       1.10054684
H        0.91570026      -0.09224808       0.51310229
H        0.69929779      -0.46805775       0.40613419
H        0.14332861       0.40758905       0.85407180
