21
Properties=species:S:1:pos:R:3 pbc="F F F"
H        0.00000000       0.00000000       0.00000000
H       -0.56912082      -0.52595156       0.67290437
H       -0.43757617       0.36585209      -0.85323107
H        0.92557186       0.33235219       0.29356900
H        0.14620572       0.35107809       1.03946781
H       -1.18192017       0.61649567      -0.27773941
H        0.02817720       0.12628876       0.31719944
H       -0.40039921       0.16110589       0.20545876
H       -0.88725573      -0.12249351       0.52695847
H       -0.43452197       0.03660035       0.34321815
H       -0.51636618       0.22870754       0.26723957
H        0.01637757       0.76639783      -0.54492831
H        0.00051188       0.80891722      -0.58532143
H       -0.10522592       0.44045043       0.02260742
H       -0.18663609       0.25005606       0.11672562
H       -0.04210126       0.00328991      -0.19202080
H       -0.06833458       0.04106370      -0.16225085
H       -0.08345348      -0.10747299       0.03109476
H        0.21545804      -0.79014343       1.27950358
H        0.21545804      -0.79014343       1.27950358
H        0.21545804      -0.79014343       1.27950358
