21
Properties=species:S:1:pos:R:3 pbc="F F F"
H        0.00000000       0.00000000       0.00000000
H        0.07742673      -0.40936196      -0.88005048
H        0.68740129       0.78573716       0.27244061
H       -0.92992669       0.22961354       0.36856177
H       -0.01049984       0.80172271      -0.32840574
H       -0.54225141       1.24599659      -0.93519956
H       -0.14839400       0.64432037      -1.22534645
H       -0.50437790       0.55724436      -0.96749485
H        1.00432789      -0.50744057      -1.52169347
H       -0.38270158       0.79674476       0.73333824
H        1.14842677      -0.46825641      -1.24055159
H       -0.58148164       1.42209315       0.08699173
H       -0.03115612       0.76975161      -0.30354333
H       -0.69078279      -0.05205435       1.09760046
H       -0.67157471      -0.06809962       1.07488966
H       -0.34101284       0.80537653      -0.19920495
H       -0.33870530       0.45667487      -0.07294932
H       -0.34891081       0.49444866      -0.07638454
H       -0.69178641      -0.20625627       0.42606586
H       -0.79864544       0.20650107      -1.01172280
H       -0.28456879       0.72684270      -0.30399370
