16
Properties=species:S:1:pos:R:3 pbc="F F F"
H        0.00000000       0.00000000       0.00000000
H       -0.72715116       0.63587439       0.12237607
H       -1.11175215      -0.07320553      -0.42292076
H        0.29946822      -0.12438690      -0.97374046
H       -0.56045353      -0.86781567      -0.31011391
H       -0.48230684       0.88651800      -0.78607863
H       -0.94300133       0.64942276      -1.54757988
H       -0.12766173      -0.74342877      -1.23236275
H       -1.54192054       1.50776553      -1.28552902
H       -1.87064028       1.32299459      -0.38782978
H       -1.80865204       2.22965145      -0.03827062
H       -1.38241827       0.21793318      -0.72657233
H       -1.41910636       1.96545959      -0.95029068
H       -1.24088955       0.98930168      -0.06454200
H       -0.72007883       0.15819532      -1.21676302
H       -1.16179633       1.78537750      -0.52049077
