7
Properties=species:S:1:pos:R:3 pbc="F F F"
H        0.00000000       0.00000000       0.00000000
H       -0.61304885      -0.15966894      -0.80746567
H       -0.86222166       0.55622131       0.02270426
H        0.22235787      -0.74548978      -0.69686073
H       -0.20862907       0.60689795       0.74264145
H        0.34936240       0.17294085      -0.99420893
H       -0.67794192      -0.28134066       0.58649027
