21
Properties=species:S:1:pos:R:3 pbc="F F F"
H        0.00000000       0.00000000       0.00000000
H       -0.72715116       0.63587439       0.12237607
H       -1.03273225      -0.25791639       0.35863692
H        0.34268501       0.94210368      -0.21984418
H       -0.59381640      -0.10643560      -0.49720615
H       -0.15345320       0.65895706       0.56865805
H       -0.58888459       0.65895706      -0.22801912
H       -0.08802408       0.14099479       0.31715930
H       -1.14184940       0.32527441       1.13067508
H       -1.12519443       0.54311287       0.18181795
H       -1.91673148       0.20726630       0.55301362
H       -1.43931115       1.18292284       1.28653908
H       -1.21499610       0.91873097       0.32051152
H       -1.61076987       0.88447106       2.25341654
H       -1.99184251       1.82657480       2.11007047
H       -2.13372207       1.66690588       3.11391306
H       -1.09006619       1.74218154       2.46747518
H       -2.94160390       1.47214735       2.51165080
H       -2.58116221       2.42781258       2.61219692
H       -1.94246769       0.19835806       1.03894186
H       -1.24452996       1.44372976       1.49773741
