5
Properties=species:S:1:pos:R:3 pbc="F F F"
H        0.00000000       0.00000000       0.00000000
H       -0.90169489       0.25064358      -0.26867270
H       -0.16041759       0.49897972      -0.82057685
H       -0.52566737      -0.56582880      -0.76395047
H       -0.20266151       0.40224665      -0.87267500
