5
Properties=species:S:1:pos:R:3 pbc="F F F"
H        0.00000000       0.00000000       0.00000000
H       -0.32983679       0.96807545      -0.08579928
H       -0.01616727       0.31530851      -0.92107552
H        0.25461131      -0.61378920      -0.81375670
H       -0.85792321       0.23626423      -0.45136467
