21
Properties=species:S:1:pos:R:3 pbc="F F F"
H        0.00000000       0.00000000       0.00000000
H       -0.29363519      -0.58319080       0.72230726
H        0.03365177       0.36585209       0.95830250
H       -0.99191463      -0.05341591      -0.25802329
H       -1.05665970      -0.49423581       1.40289855
H       -1.38008237       0.66913199       0.35888365
H       -1.74720979       0.24503590       0.36949524
H       -0.28182495      -0.06274623       1.91939807
H       -0.74922699       0.61649567       1.48016405
H       -0.65407491      -0.54765171       0.46035081
H       -0.42417824       1.03498411       0.28323033
H       -1.31213224       0.99244440       0.92213619
H       -1.31020606       0.50922775       1.25975037
H       -0.58283591       0.57129759       0.62903172
H       -0.97241020      -0.44735998       1.18503332
H       -0.98122954      -0.51456577       0.38966531
H       -0.87256420       0.16520450       0.64691168
H       -0.30206567      -0.63923728       1.35524058
H       -0.32352242      -0.65186822       0.93003458
H       -0.68312413       1.00172651       1.13138330
H       -0.68983006       0.97575212       1.18777335
