21
Properties=species:S:1:pos:R:3 pbc="F F F"
H        0.00000000       0.00000000       0.00000000
H       -0.26684549      -0.92909771       0.11675546
H        0.65916574      -0.80471081      -0.30792660
H        1.13747311       0.01176161       0.08946338
H        0.98039985       0.11371982      -0.34473288
H        0.02799627      -0.71125925       1.01879513
H       -0.68537164      -0.82288849       0.44697094
H       -0.09981775      -0.23814297       1.13930511
H        1.01296854      -0.48393300       0.79156065
H        0.23923612      -1.03971183       0.59029233
H       -0.12564062       0.63144547       0.50100249
H       -0.07546662       0.57693243       0.71399689
H        0.48873872       0.10568121       0.42866495
H       -0.59670573       0.15207779      -0.00657770
H       -0.57574445       0.19963717      -0.02514556
H       -0.63581097      -1.73448110       0.91587007
H       -0.65229726      -1.73448110       0.91732055
H        0.15171066      -0.86239421       0.37801015
H        0.14997873      -0.96168411       0.59128040
H        0.07857072      -1.57629931       0.36303234
H        0.04467344      -1.53996468       0.34748656
