21
Properties=species:S:1:pos:R:3 pbc="F F F"
H        0.00000000       0.00000000       0.00000000
H       -0.32486421      -0.96807545       0.10303906
H        0.14697802      -0.79439902      -0.63297033
H       -0.13031785      -0.43148959       0.92204005
H        0.43962505       0.18492013      -0.54014975
H        0.11988343      -1.68818974      -0.24765897
H       -0.14611128       0.44911200       0.26012486
H        0.94419664      -0.52500641       0.95033455
H        0.70373881      -0.35165817       0.53952968
H        0.10622288      -1.36058736       1.09200132
H        0.89210796       0.55077219       0.30527055
H        0.23604186      -1.56533360       0.04064345
H        1.79184246      -0.96120524       2.10844803
H        0.89889383      -0.58275104       2.19491267
H       -0.41817921      -1.21729469       0.34849107
H        1.97840214      -1.01188183       1.15414810
H        1.07215786      -1.41079307       0.88411987
H        0.57031465      -0.87180132      -0.14296883
H        1.62609386       0.06011653       1.86140823
H        1.09728622      -1.52485466       1.83937788
H        2.01578331      -0.63287640       1.27755189
