21
Properties=species:S:1:pos:R:3 pbc="F F F"
H        0.00000000       0.00000000       0.00000000
H       -0.06381270       0.34709048       0.90747839
H        0.77586979      -0.03136373       0.59161961
H        1.46096802       0.62971890       0.38748476
H        0.88616723       0.87529320       0.92906386
H        0.96373874      -0.14164960      -0.07194710
H        0.02021772       0.24296415      -0.42686629
H        1.16433942       0.78575730      -0.46309879
H        1.23245168       1.11810946       0.50552225
H       -0.23593670       0.72554469       0.02702022
H        0.23878944       1.06890392      -0.56914639
H        0.31538606       1.25541830      -0.38089427
H        0.07713106       0.53078610       0.98482060
H        0.09946167       0.77374196       0.49557975
H        1.04258752       0.02205218      -0.39799261
H        0.73899293       0.59146893       0.26867124
H        0.86370474       0.64623839       0.02274337
H       -0.30971932       0.94110894      -1.65104377
H       -0.30971932       0.94110894      -1.65104377
H       -0.30971932       0.94110894      -1.65104377
H       -0.30971932       0.94110894      -1.65104377
