21
Properties=species:S:1:pos:R:3 pbc="F F F"
H        0.00000000       0.00000000       0.00000000
H       -0.77018702      -0.01689900       0.59547228
H       -0.50759143      -0.73944688      -0.08444828
H       -1.05276513      -0.91157907       1.01143026
H       -1.43470454      -0.86090243       0.11721820
H       -1.36402118      -1.05566096       1.12240314
H       -0.28749809       0.49897972       0.78512740
H       -2.02743030      -0.27128822       0.35213572
H       -0.37152746      -0.85764241      -0.42395851
H       -1.22445381      -0.02145544       0.90917701
H       -1.65565550      -0.54381919      -0.60121852
H        0.36943415      -0.31194618       0.51132715
H       -0.10000235      -0.25805727       1.16708994
H        0.17910412      -1.25900805       0.38922393
H       -0.62884647      -1.00971544       1.10649610
H        0.23724443      -1.32956266       0.52882862
H       -0.71358097      -0.92880845       1.31525159
H       -0.70039684      -0.80801105      -0.33474648
H       -1.27850401       0.03827897       0.03999361
H       -0.89550549       0.26237789       0.65674764
H       -0.42208791       0.14352943      -0.05813260
