21
Properties=species:S:1:pos:R:3 pbc="F F F"
H        0.00000000       0.00000000       0.00000000
H       -0.73394406      -0.63587439       0.07106813
H       -0.41567031      -0.58519775      -0.84773260
H        0.13063647      -1.01761651       0.02673087
H        0.94372350      -0.57784009      -0.27912369
H        0.50460684      -0.25284556      -1.15750003
H        1.21973586      -0.30626148      -0.42329210
H       -0.16589141       0.71357214      -1.02030241
H        0.16364005       0.85764837      -0.29325587
H        0.02970034      -0.14060593      -0.09609519
H        0.85556495      -1.02139664      -0.18163103
H        0.85556495      -1.02139664      -0.18163103
H        0.81749964      -1.07094336      -0.14534849
H        0.48050043      -1.10401130      -0.98693955
H       -0.31801894      -0.46114373      -0.93782663
H       -0.31801894      -0.46114373      -0.93782663
H        0.87343597      -1.89841032      -1.50448728
H        0.89135695      -1.89841032      -1.49037862
H        0.87343597      -1.89841032      -1.50448728
H       -0.38808939      -1.04237759      -1.78950262
H        0.18169543      -1.52289820      -1.68651402
