21
Properties=species:S:1:pos:R:3 pbc="F F F"
H        0.00000000       0.00000000       0.00000000
H        0.69739223       0.29845181      -0.69129914
H       -0.15956342       0.79349989      -0.41949362
H        0.93907189      -0.69093096      -0.56466389
H       -0.55242658      -0.61471456       0.60850215
H       -0.19676250       0.17968446       0.06466657
H       -0.34477192       1.60442579      -1.10667944
H        0.25679177       0.89534587      -0.81791008
H        0.49829122      -0.92054451       0.33328593
H       -1.15035439      -1.35370374       1.22238183
H       -0.09693030      -0.22829068       0.45508036
H        0.41393065       0.40370995       0.08033061
H       -0.00481555      -0.18781281       0.57479304
H        1.17960644      -0.42549643      -0.25328100
H        1.15860152      -0.42549643      -0.27683008
H       -1.82079148      -0.60629523       1.43502820
H       -1.11137438      -0.30784342       2.11398149
H        0.35892946      -1.81522465       0.81645238
H       -0.93609893      -0.63115585       0.52571625
H        0.32315329      -1.77818692       0.86910325
H       -0.15244842      -1.14895749       1.57789564
