21
Properties=species:S:1:pos:R:3 pbc="F F F"
H        0.00000000       0.00000000       0.00000000
H        0.15274149      -0.33235219      -0.95892441
H        0.40630877       0.75366068      -0.46364817
H       -0.61205906       0.42724946      -0.91188538
H       -0.32272601       0.91843063       0.01984926
H        0.51756978      -0.39891118      -0.79140091
H       -0.36981398       1.01044023      -0.17076004
H       -0.86492646       1.18985951       0.20245352
H       -1.38976431       0.30934560      -0.13424778
H       -1.40125728       0.30934560      -0.11562160
H       -0.50772202       1.93167365       0.47862709
H       -0.50772202       1.93167365       0.47862709
H       -0.49824992       1.93167365       0.46592107
H       -0.26881158       0.49304277       0.66334128
H       -1.65334392       1.55571163      -0.34332487
H       -1.65334392       1.55571163      -0.34332487
H       -1.65334392       1.55571163      -0.34332487
H       -1.65334392       1.55571163      -0.34332487
H       -1.65334392       1.55571163      -0.34332487
H       -1.07462323       1.92081821      -0.87805343
H       -2.36703253       1.35926127      -0.52897418
