21
Properties=species:S:1:pos:R:3 pbc="F F F"
H        0.00000000       0.00000000       0.00000000
H        0.63883960       0.60990006      -0.40983751
H        0.58520758      -0.41172725      -0.49184474
H       -0.06164354       0.96543115      -0.11047003
H        0.14028120       1.42637253      -0.78150439
H       -0.94267052       0.39891118      -0.07460592
H       -0.59252316      -0.49504808      -0.67614168
H       -1.09141731       0.79782236      -1.00845182
H       -0.99218678       0.64955473      -1.01417327
H       -0.28916198       0.90042096      -1.55110002
H       -0.22549048       0.99488294      -1.63786399
H        0.08879015      -0.28734034      -1.38146341
H       -0.33698559      -0.19659626      -1.62427187
H       -0.30519724       0.79573381      -2.06752300
H       -1.10284162       1.13327408      -2.13065100
H        0.18469191       0.89991176      -1.39730275
H       -0.56694400       0.22749981       0.05227721
H       -0.25869149      -0.30009797      -0.84357047
H       -0.19365054      -0.70999205      -0.88268495
H        0.25964496      -0.98606026      -0.01261309
H       -0.41836867      -0.08584702      -0.11451750
