21
Properties=species:S:1:pos:R:3 pbc="F F F"
H        0.00000000       0.00000000       0.00000000
H       -0.33100656      -0.58582085      -0.77496612
H        0.11696732       0.08442509      -1.41011465
H        0.59246564      -0.11033349      -0.52169222
H        0.62233496       0.85774195      -0.86119425
H       -1.05356085       0.08442509      -0.48859310
H       -0.92166376       0.20857817      -1.04585004
H       -0.10991442       1.44356275      -0.44412267
H        0.57369691       0.70332730       0.01278394
H       -0.39737821       0.57894039       0.32078540
H       -0.18739131       1.06374431      -1.36981869
H       -0.56895852       1.11523509      -1.08626223
H       -0.16292739       1.37357330      -0.23516557
H       -0.85703760       0.46354809      -0.32238719
H       -0.30188286       1.97568214       0.85929549
H        0.62774700       1.89128888       0.58229899
H       -0.30188286       1.97568214       0.85929549
H        0.24279603       1.01144123       0.42185664
H        0.21255642       2.03458142      -0.22728229
H        1.03192520       1.78204525      -0.08938657
H        1.22468448       1.91019452      -0.34324962
