21
Properties=species:S:1:pos:R:3 pbc="F F F"
H        0.00000000       0.00000000       0.00000000
H        0.42017129      -0.49897972       0.72286665
H        0.10221601      -0.79439902      -0.64172107
H        0.72173345      -1.41974735      -0.37065762
H        0.92134798      -0.03543162      -0.04346812
H        0.68424863      -1.61087143      -0.86066115
H        0.67202747      -0.02303052      -1.00727463
H        0.81436765      -0.89379579       0.50576568
H       -0.21362950      -0.89468008      -0.45522955
H        0.62095809      -1.27840948      -0.48357362
H       -0.15251523      -2.05064797      -0.62724340
H        0.18278560      -0.49503833      -0.38583368
H       -0.26789325      -0.46285570      -0.55608308
H       -0.38120651      -0.31431901      -0.71347189
H       -0.40005529      -0.27619419      -0.74839747
H        0.13801007      -0.41782582       0.23743382
H       -0.39742494      -0.04175644      -0.86568296
H        1.00026214       0.22961354      -0.00877792
H        1.00669730       0.19475858      -0.04419928
H       -0.21778868      -0.67020613      -0.09077137
H        0.43783128       0.80562419      -0.89485306
