21
Properties=species:S:1:pos:R:3 pbc="F F F"
H        0.00000000       0.00000000       0.00000000
H       -0.96783787       0.05067664       0.09371616
H       -0.16066818      -1.01237965       0.05096005
H       -1.09124970      -1.34473181      -0.22631980
H       -0.60534239      -0.05341591       0.82706183
H       -1.13624775      -1.31083143      -0.06081982
H       -1.56690693      -0.10409255       0.68254018
H       -0.83891964      -0.29885113       1.37926638
H       -0.51707470      -0.37845421      -0.73312145
H       -1.73104155      -0.41685924       1.00744200
H       -0.87755674      -0.70000589       1.38087547
H       -1.17629766      -1.33850706       0.92406487
H       -1.25353122      -1.36726952       1.47051656
H       -1.45937872      -0.52993500      -0.54030687
H       -1.03871107      -1.92667675      -0.19080546
H       -0.22077721      -1.94174886       0.10059145
H       -0.07322675      -1.87326086       0.15315777
H       -1.59290719      -0.72103113       0.67595559
H       -0.47357565      -1.34388542      -0.61433011
H       -0.39796007      -2.49201155       0.11715333
H        0.83427417      -0.30639035       0.25454542
