21
Properties=species:S:1:pos:R:3 pbc="F F F"
H        0.00000000       0.00000000       0.00000000
H        0.45279220       0.75366068      -0.41837266
H        0.91278708      -0.06000012      -0.69117618
H        0.87844342      -0.26419187       0.46028656
H        0.41837862       0.48946881       0.87064838
H        1.42837179       1.05211246      -0.53015232
H        1.77486229       0.11000878      -0.31635606
H        1.61135781       1.08932793      -0.05650181
H        1.30571878       0.17416030       1.11817431
H        1.89684057      -0.13980496       0.48710334
H        1.66936851      -0.21966906      -0.01633221
H       -1.41911817      -0.48574555      -0.01245340
H        0.03434372       0.20419174      -0.23088956
H       -2.32696533      -0.43232965       0.46324018
H       -1.93416595       0.38133115       0.10029987
H        0.65856850       1.19408631       0.08965534
H        0.81177312       0.15469500      -0.29750228
H        1.13955426       0.47346491       0.69332588
H        0.46138075       1.19408631       0.05468744
H       -1.47370315      -0.73078144       0.94923794
H        2.15989447       1.15630555      -0.06131556
