21
Properties=species:S:1:pos:R:3 pbc="F F F"
H        0.00000000       0.00000000       0.00000000
H        0.36329272       0.89468008       0.34769225
H        0.93511528       0.39891118      -0.14054634
H        0.43587935      -0.43865079      -0.46082318
H        0.89693153       1.38829398       0.12961580
H       -0.43675810       0.67024595       0.64291257
H        0.25023723       1.35574007       0.56419820
H        0.64156854       0.94851756      -0.70071387
H       -0.32097185       0.11757052      -0.87448734
H       -0.52669239       0.68805838      -0.37929994
H       -0.10906091       1.13233232      -1.06962037
H        0.57382548      -1.93179846      -0.42234272
H       -0.45323586      -1.98795366      -0.09658375
H       -0.70434499      -1.07636094       0.30249879
H        0.17789328      -1.29419947       0.65215993
H        0.64554602      -2.02075338       0.59759218
H       -0.86161149      -1.09327364       0.19684571
H        0.66673410      -1.32296193       0.90830266
H       -0.09898469       1.49097633      -0.52326739
H        0.66732383      -1.30379081       0.90861166
H        0.54759729      -1.31201196      -0.30508906
