21
Properties=species:S:1:pos:R:3 pbc="F F F"
H        0.00000000       0.00000000       0.00000000
H        0.24483983      -0.86484438      -0.37437752
H        0.05303169       0.19475858      -1.00627065
H        1.02051103      -0.44547620      -0.99614263
H        0.40678173      -0.01398662      -1.69648325
H        0.28126955      -0.97931916       0.12306657
H        0.43758348      -0.39106226      -1.75610912
H        0.39182904      -0.58319080       0.67410642
H        0.35042146       0.38224036       0.55456996
H        1.45490456      -0.43131760      -0.30577016
H        1.07394028       0.25785345      -0.16262752
H        0.16954486      -0.51432133      -0.34923846
H        1.07014346       0.17617692       0.01802915
H        0.88509303      -1.20268607      -0.67132366
H        0.86424732      -1.22571659      -0.57665408
H        0.56902665       0.18454543      -0.31354412
H        0.47628582       0.02229968      -0.28000090
H        2.30686045       0.55060649      -0.81102920
H        2.30686045       0.55060649      -0.81102920
H        2.30686045       0.55060649      -0.81102920
H        2.30686045       0.55060649      -0.81102920
