21
Properties=species:S:1:pos:R:3 pbc="F F F"
H        0.00000000       0.00000000       0.00000000
H       -0.47398776      -0.23709527       0.75329894
H       -0.30146456       0.74222386       1.00725508
H       -0.34510738       0.51656544       1.35616398
H       -0.48881701       0.95834106       0.08226557
H       -0.93117952       0.09349668       0.01577916
H       -1.30645049       0.98817676       0.35050780
H        0.18925276       1.00592303       0.07500733
H        0.10408947       0.04546016       0.21035558
H       -1.18969631       0.28885630       1.26755571
H       -0.78985405       1.07256997       1.17152357
H       -0.88056099       1.10618484       1.21812129
H       -1.71007025       0.04607308       0.40394562
H       -1.71007025       0.04607308       0.40394562
H        0.63176858       0.01876527      -0.25162894
H        0.61005330       1.08306193      -0.42749345
H        0.65568125       1.00814807      -0.52342618
H        0.44482562      -0.20270377      -0.09176379
H        0.11614761       1.70574951      -0.27651340
H       -0.65806437       1.68559802       1.39592969
H       -0.35638458       1.35324585       2.31888962
