21
Properties=species:S:1:pos:R:3 pbc="F F F"
H        0.00000000       0.00000000       0.00000000
H       -0.21671417       0.94706190      -0.06457304
H       -0.60932863      -0.19475858      -0.80256563
H        0.34169349       0.96578783      -0.98758847
H       -0.36970451       0.24323994      -1.14621162
H       -0.68394256      -0.43148959      -0.63195193
H       -0.39428282       0.03546923       0.37222445
H       -0.43882042       1.24551368      -1.02108717
H       -0.80393708      -0.17059420      -0.42656153
H       -0.98603129       0.69259024      -0.27344877
H       -0.12791392      -0.64229304      -0.49389142
H       -0.68759346      -1.92787242      -0.85294485
H       -0.67464781      -1.92787242      -0.87236547
H       -0.67464781      -1.92787242      -0.87236547
H       -0.67464781      -1.92787242      -0.87236547
H       -0.67464781      -1.92787242      -0.87236547
H       -0.68759346      -1.92787242      -0.85294485
H       -0.68759346      -1.92787242      -0.85294485
H       -0.68759346      -1.92787242      -0.85294485
H       -0.68759346      -1.92787242      -0.85294485
H       -0.67464781      -1.92787242      -0.87236547
