21
Properties=species:S:1:pos:R:3 pbc="F F F"
H        0.00000000       0.00000000       0.00000000
H        0.49089283       0.77460212       0.32722577
H       -0.07961303       1.18396401       1.00176775
H       -0.37582323       1.37872255       0.03862053
H       -0.22947396       0.89468008      -0.44745192
H       -0.77979851      -0.15966894       0.64787650
H       -1.01769352       0.08895500       0.09854370
H       -1.12655389       1.35822821      -0.26389110
H       -1.54082108       0.42352188       0.47818834
H       -1.02344775       0.78505284       1.05981827
H       -1.12680626       0.39963201      -0.39226151
H       -0.37627441       1.07854235       0.20649137
H       -0.40258223       1.10051978       0.07153711
H       -0.77804154       0.87076288       0.40767816
H       -0.26248598       0.32436240      -0.43020970
H       -0.33112985       0.50488245      -0.72388846
H       -0.90859920       1.26034760       0.56275362
H       -1.72504461       1.84684753      -0.00202772
H       -0.58052170       1.01101875      -0.10601944
H        0.20771158       0.84987175      -0.49026915
H        0.04710621       0.89780909       0.41540506
