21
Properties=species:S:1:pos:R:3 pbc="F F F"
H        0.00000000       0.00000000       0.00000000
H        0.21426670       0.05341591       1.00227761
H       -0.70215273       0.28302944       1.40324736
H       -0.13274993       0.93326354       1.23359656
H       -0.52409703      -0.58319080       0.57729691
H       -1.13779891       1.09293246       1.36666143
H       -0.94554287      -0.15148079      -0.17624739
H       -1.73002148       0.48303241       0.89194542
H       -1.46276772      -0.18721354       1.62178755
H       -1.60127020      -0.50635040       1.13250458
H       -1.59008026       0.21437129       0.53371561
H       -1.01529825       1.36475313       0.93652868
H       -1.42929184       0.33583903       0.65599871
H       -2.38637996      -0.74013698       1.54868996
H       -1.46081161      -0.49423581       0.98714662
H       -2.32354641      -0.20228562       1.73575163
H        0.47384965      -0.67214578       0.35478103
H        0.47740334      -0.70757771       0.39061898
H        0.93255013      -0.81655312       0.30578041
H        1.21528196      -0.13105893       0.93682820
H       -0.41864735       0.11362594       1.32338715
