21
Properties=species:S:1:pos:R:3 pbc="F F F"
H        0.00000000       0.00000000       0.00000000
H       -0.58002573       0.67024595       0.51736289
H       -0.05242664       1.13990700       1.18752599
H        0.00336009       0.17126623       1.11631298
H        0.93991095       0.26419187      -0.31637624
H        0.08208805       0.78825402      -0.18672532
H        1.40327978      -0.03425995       0.54938340
H        0.78387856      -0.82865894       0.74584246
H        0.43571666       0.49146658       1.62293267
H        1.08971643       0.98301262      -0.19556788
H        0.27850711      -0.32219422       1.11175537
H        1.39016843      -0.18579137       0.22386742
H        1.08971643       0.65066040       0.77544498
H        1.01540840       0.77826643       0.86116517
H        0.74113613      -0.46966103       0.42213345
H        0.92040437       0.24493700       0.96862912
H        0.45217612       0.01781246       0.92116416
H        0.58625853       0.29080552       0.48707858
H        0.20480192       0.99991161      -0.60140240
H        0.20480192       0.99991161      -0.60140240
H        1.50295818       0.66756725       0.57846284
