21
Properties=species:S:1:pos:R:3 pbc="F F F"
H        0.00000000       0.00000000       0.00000000
H        0.88292891      -0.28314662      -0.29719594
H        0.88292891      -0.68205780       0.64842224
H        0.25678939      -0.79461014      -0.50071424
H        1.12311196      -1.19352126      -0.12166384
H        0.10656714      -0.86682880       1.20626009
H        0.76643866      -1.57590866       1.10708249
H       -0.19061482      -1.59280765       0.92868954
H       -0.65918308      -1.14456892       0.49871916
H       -0.37739947      -1.60970664      -0.02676159
H        0.32388845      -1.14004564      -0.51222491
H        0.31445080      -2.23699141       0.55324340
H        0.30570465      -0.81809604       0.29257715
H       -0.45238972      -1.03293967      -0.39184988
H        0.37628224      -1.16665506       0.16463840
H       -0.39339343      -0.35710454       0.44713384
H       -1.25088429      -1.16968906       1.81937575
H       -1.25088429      -1.11944878       1.81937575
H       -1.25088429      -1.11944878       1.81937575
H       -1.25088429      -1.11944878       1.81937575
H       -1.25088429      -1.11944878       1.81937575
