21
Properties=species:S:1:pos:R:3 pbc="F F F"
H        0.00000000       0.00000000       0.00000000
H        0.50912565      -0.18477097       0.80914259
H       -0.28832680       0.11368084       1.38213468
H       -0.27500635      -0.49621922       0.62325031
H       -0.89564514       0.13965517       0.22508937
H        0.82168144       0.39891118       0.46801010
H        0.46550572       0.63170147       1.42946029
H        0.00626582       0.66310304      -0.09645769
H       -1.11017048       0.15746763       1.22857594
H        0.51693654       1.02895510       0.71514046
H       -0.25632387       0.17528009       1.79774427
H       -0.37086755       0.87747431       0.34511575
H       -0.03848778       0.17972797       1.56638789
H       -0.27442342       0.79934156       1.32698262
H       -1.06180263       1.56762671       1.06194890
H       -1.06180263       1.56762671       1.06194890
H       -1.07650459       1.53833079       1.02526808
H       -1.06180263       1.56762671       1.06194890
H       -1.06180263       1.56762671       1.06194890
H       -1.06180263       1.56762671       1.06194890
H       -1.06180263       1.56762671       1.06194890
