21
Properties=species:S:1:pos:R:3 pbc="F F F"
H        0.00000000       0.00000000       0.00000000
H       -0.33764970       0.29845181       0.92208624
H       -0.83246267      -0.22924539       0.27035260
H       -1.34958029       0.28063935       1.09238935
H       -0.16425365      -0.47988898      -0.39201838
H        0.72652358      -0.08097780      -0.07467028
H        0.79378563       0.28487429       0.88186097
H        0.75982827       0.13686070       0.87374842
H       -0.62476498       0.80833656       1.47217786
H        0.12956423       0.55769300       0.90983802
H       -0.41857767       0.89523327       0.32694679
H       -0.72958726       0.93834770       2.96285200
H       -0.72920758       0.99013281       2.95745277
H       -0.83389336       0.93834770       2.95182729
H        0.09697417       0.75366068      -0.60881233
H       -1.18476522       0.51256871      -0.01204741
H       -1.10480225       1.16854703       1.09883487
H       -0.10735147       0.35313368       0.54340613
H        0.02097548       0.15706426       0.47196281
H        0.05641934       0.31276199       0.54606509
H        0.09697417       0.23366040       0.51340771
