21
Properties=species:S:1:pos:R:3 pbc="F F F"
H        0.00000000       0.00000000       0.00000000
H        0.44618398      -0.77136850      -0.50915068
H        0.06752411      -1.46818519       0.14229923
H        0.66891658      -1.23491657       0.37901437
H        0.25898913      -0.79514015       1.14492369
H       -0.46651042      -0.48822188      -0.32239485
H       -0.03375490      -0.15148079       0.96123618
H       -0.30918398      -1.23857164       1.06895590
H       -0.78771722      -0.95788288       0.46773529
H       -0.97598618      -0.64789081       0.55411196
H       -0.51236725       0.37012094       0.32973403
H       -0.20517263       0.09953994       0.95146734
H        0.35978410      -0.73986852       1.22322321
H       -0.07868546      -1.32051015      -0.39468473
H       -0.54684627      -1.03736353       0.41074330
H       -0.01463234       0.42337078      -0.45703840
H        0.69769990      -1.20297658      -0.04127127
H       -0.00994191       0.24432909      -0.96972907
H        0.40472165      -0.69086128       0.33625308
H       -0.25459251       0.30638826       0.19889814
H       -0.93389356      -1.09960866      -0.72478062
