21
Properties=species:S:1:pos:R:3 pbc="F F F"
H        0.00000000       0.00000000       0.00000000
H        0.05110265      -0.33235219      -0.96966726
H        0.54881740      -0.91817307      -0.28965420
H        0.78160149      -0.14680457       0.34605497
H        0.22740212      -0.61972129      -1.21752405
H        0.15271932       0.64759445       0.18246606
H        0.66457146      -0.66108263       0.26339236
H        0.74819517      -1.01195431      -0.64386660
H       -0.58673668       0.06177360      -0.22169060
H       -0.08608705      -0.69188708       0.13804042
H       -0.70951283       0.33228594      -0.14187512
H        0.53298718       0.77451080       0.89295959
H       -0.20215046       0.24877411       1.07047415
H        1.44353747       1.86687708       1.37006950
H       -0.49314037      -0.68032360       1.05769813
H       -1.91741061      -0.85574102       1.24626648
H        2.15800142       1.40332901       0.79736704
H        2.03965235       1.17006040       1.83095717
H       -1.80764520      -1.19626892       1.37511325
H        0.56093788       1.45751512       1.33131874
H        0.18640733       0.66311610       0.80030000
