21
Properties=species:S:1:pos:R:3 pbc="F F F"
H        0.00000000       0.00000000       0.00000000
H        0.15607943       0.96046287      -0.03480161
H       -0.65425098      -0.31530851      -0.64853460
H        0.47090459       1.11194372      -0.94364679
H       -0.23124409       0.92717278      -1.59242082
H       -0.07273078       0.61689568      -1.65968585
H       -0.66612679       0.05067664      -0.70835578
H        1.15280533       0.42644954      -0.82888627
H        0.88696742       0.12152696      -0.84317952
H       -0.13250667       0.76757622       0.01534230
H        0.81645089      -0.08439321      -0.52378118
H        0.01496407       0.80237651      -0.27249748
H       -0.78291422       1.11497319      -0.84162462
H       -0.40693104       1.40626168       0.18514621
H       -0.84142697       2.33585978       0.87568164
H       -0.85834688       2.30698490       0.90257210
H       -0.84142697       2.33585978       0.87568164
H       -0.84142697       2.33585978       0.87568164
H       -0.85834688       2.30698490       0.90257210
H       -0.85834688       2.30698490       0.90257210
H       -0.85834688       2.30698490       0.90257210
