21
Properties=species:S:1:pos:R:3 pbc="F F F"
H        0.00000000       0.00000000       0.00000000
H       -0.85983193      -0.55622131      -0.06804981
H       -0.68747526       0.31530851       0.61320412
H        0.10356698       0.83756196       0.58402711
H       -0.80727655       1.23647308       0.83810961
H       -1.58208871       0.56622714       0.77678853
H       -1.10654855      -0.27133483       0.42228130
H        0.26265535       0.09015346      -0.10109723
H       -1.52360713      -0.14285278       0.11207318
H        0.00731498       0.15258145      -0.22968450
H       -0.31572568       0.02071112      -0.53648895
H       -0.54138768      -0.28524166      -0.34220907
H       -0.39590546       0.60070848       0.32418174
H        0.30163929      -0.56033635      -0.32033831
H        0.70318639      -1.40913546      -0.57794452
H        0.70318639      -1.40913546      -0.57794452
H       -0.05602172       0.60070848       0.55946475
H       -0.04063156       0.63296962       0.52160686
H       -1.37956154       1.96902406       1.38581967
H       -1.37956154       1.96902406       1.38581967
H       -1.37956154       1.96902406       1.38581967
