21
Properties=species:S:1:pos:R:3 pbc="F F F"
H        0.00000000       0.00000000       0.00000000
H        0.73469222      -0.22961354      -0.67884368
H        0.75057101      -0.60990006      -0.11280962
H        0.18329206       0.77460212       0.56076425
H        0.21004236       0.52404714      -0.35511699
H        1.05915499       0.01544833      -0.71451819
H        0.66703194       0.18477097       0.68482774
H        1.63840413       0.23818688       0.35786161
H        1.16147494       1.11487627       0.11853294
H        0.62475824       0.68338668      -0.64243740
H        1.58970189       0.16787197       0.37425485
H        0.66051066       0.80777359       0.37568516
H        1.28496540       0.00336963       0.67382491
H        1.37507534      -0.09880853       0.68044358
H        0.27739513       0.50160658       0.46892405
H        0.27739513       0.50160658       0.46892405
H        0.24613273       0.53498095       0.44463235
H        1.27028155       1.51239109       0.91957939
H        1.27028155       1.51239109       0.91957939
H        1.27028155       1.51239109       0.91957939
H        1.27028155       1.51239109       0.91957939
