21
Properties=species:S:1:pos:R:3 pbc="F F F"
H        0.00000000       0.00000000       0.00000000
H        0.79402828      -0.31375703       0.65969908
H        0.98058796      -0.26308039      -0.29460084
H       -0.02248710      -0.92847157       0.56614447
H        1.44110203      -0.84627116       0.33458608
H        1.31686187      -0.68660223      -0.67159194
H        0.40898639      -0.52727222      -1.10503173
H        0.93135631      -1.56329155      -0.30264065
H       -0.41608515      -1.48469281      -0.20133340
H       -0.10844117      -1.34374464      -0.76011813
H       -0.27053595      -0.93663418      -0.54046720
H       -0.36407381      -0.74740851      -0.60179293
H        0.03581171      -1.72805142       0.41519538
H       -0.07120264      -1.72296047      -0.45332369
H        0.13725704      -0.84820378       0.81971705
H        0.53654271      -1.24238110      -0.84558272
H        0.14749718      -0.65031469      -0.36053428
H        0.57559812      -1.36294484      -0.15881059
H        0.63588578      -1.25740266      -0.00020310
H       -0.73715425      -1.14486063       0.51753330
H       -0.73715425      -1.14486063       0.51753330
