21
Properties=species:S:1:pos:R:3 pbc="F F F"
H        0.00000000       0.00000000       0.00000000
H       -0.43620220       0.58582085      -0.72101700
H       -1.33561981       0.36798236      -1.02376318
H       -0.56188738      -0.18779644      -1.22503161
H        0.11750925      -0.36585209      -0.95166576
H       -0.50691354       0.20120710       0.28456712
H       -0.63526863      -0.31243616      -1.64722037
H       -0.86894310      -0.12346518      -1.56481969
H       -0.47248656       0.26657054      -0.87355244
H       -0.77753878      -0.78920966      -0.04704094
H       -1.29281628      -0.50080335      -0.72091484
H       -0.80697161       0.86696208      -1.67153716
H       -0.49715221      -1.08554888      -1.15579247
H       -0.80834126      -1.26040506      -1.31456161
H       -0.91007197      -1.28654051      -1.35356891
H       -0.02126086      -0.83714700      -0.57057089
H        0.05054730      -1.34213305      -0.46258447
H       -0.63589334      -1.74967253       0.02717841
H       -0.98373216       0.02888638      -0.41655552
H       -0.98049229      -1.72493255      -1.52959359
H       -1.86945558      -0.48299089       0.12790424
