21
Properties=species:S:1:pos:R:3 pbc="F F F"
H        0.00000000       0.00000000       0.00000000
H        0.93511528      -0.39891118      -0.14054634
H        1.06930804      -0.76476324       0.80891061
H        0.04254276      -0.69736302      -0.54989296
H        0.66570890      -1.34795403       0.14178461
H        0.62430775      -1.57842398       1.10554469
H       -0.14256956       0.12438690       1.00872481
H        0.76670676       0.40753353       0.80598009
H        0.79516661       0.10748790       1.27030885
H        0.56218499      -0.73007405       0.72484273
H       -0.39092529      -1.37367773       0.80304170
H       -0.41157943      -0.49032766       0.23214018
H       -0.03620763      -1.49197316       0.00729096
H       -0.26505643      -1.19996977       1.22329330
H        0.81373435      -1.60360241       0.34415200
H       -0.13420470      -0.87386739       1.24693108
H        0.54754704      -1.51383543      -0.18703297
H        0.34662589      -0.38461375       0.94659913
H        1.02338910      -0.31375703       0.13549317
H        0.26649952       1.39674175      -0.47758815
H        0.28995812       1.37692094      -0.51962775
