21
Properties=species:S:1:pos:R:3 pbc="F F F"
H        0.00000000       0.00000000       0.00000000
H       -0.92830116      -0.43148959      -0.07346868
H       -0.12888046      -0.75366068       0.60286510
H       -0.90024382      -0.98726839       0.72552043
H       -0.91535020       0.46354809       0.02410325
H        0.29733491       0.02094144       1.01077795
H       -0.41130567       0.66380900       1.38209140
H       -1.63398600      -0.03257841       0.55597770
H       -1.32434654       0.69316161       0.93696880
H       -1.50526357      -0.08051576       1.46673036
H       -0.08425748      -0.67195988       1.15308070
H       -1.39247262       0.50414008       1.12686384
H       -0.94486660      -0.21228704       0.86464059
H       -0.66983151      -0.15231493       0.87531447
H       -0.99472451       0.96377361      -0.47421566
H       -0.75171584      -0.47602770       1.18186891
H       -0.90232444      -1.56096423      -0.00956906
H       -0.86759067      -1.55789924       0.01589785
H       -0.83336031      -1.55347717       0.03878536
H        0.46995789      -1.35984671       1.00589144
H        0.46995789      -1.35984671       1.00589144
