21
Properties=species:S:1:pos:R:3 pbc="F F F"
H        0.00000000       0.00000000       0.00000000
H        0.47219095      -0.55577880       0.64514065
H        0.37933108      -0.14641684       1.52369666
H       -0.61619341      -0.46966103       0.58973300
H       -0.95636404       0.49841443       0.61065519
H       -0.33585238       0.51622689      -0.20664024
H       -0.43743643      -0.27080375       0.91481030
H        0.36236900      -0.26442495       0.55733895
H       -0.39882326       1.01855755       0.19501776
H        0.63522267       0.39183998       0.10136127
H        0.16708249       0.34836978       0.73304474
H       -0.54568267      -0.44486865       1.85324168
H        0.66687846      -0.41107804       0.55153728
H        0.40498874      -0.48200589       0.06194377
H       -0.19730088      -0.74064064       0.55658048
H        0.30135009      -0.37977916       0.04401398
H       -0.30755115       1.33705866      -0.45775801
H       -0.30755115       1.33705866      -0.45775801
H       -0.30755115       1.33705866      -0.45775801
H       -0.33519900       1.29844809      -0.47415477
H        0.46366411       0.46233624       0.18744889
