21
Properties=species:S:1:pos:R:3 pbc="F F F"
H        0.00000000       0.00000000       0.00000000
H        0.59380746      -0.49897972      -0.58861941
H        0.05017209      -0.00393164      -1.30465841
H       -0.66412401      -0.19475858      -0.75784713
H        0.91649461      -0.40284282      -0.92560804
H       -0.07609445       0.96149951      -1.29689240
H        0.05939484      -0.07037168      -1.47504461
H       -0.12485784       1.08238709       0.09173965
H       -1.28593838      -0.72049528      -1.18829536
H       -0.12485784       1.08238709       0.09173965
H       -0.12485784       1.08238709       0.09173965
H        0.12080036       1.46962142      -0.70703411
H        0.25621483       0.14028341      -0.05160640
H        0.33883879       0.54929042       0.29535550
H        0.37001824       0.54929042       0.30375886
H        0.54480493       0.77276570      -0.69586909
H        0.68484825       0.83719879      -0.89689398
H        0.40680778       0.71258444      -0.39199477
H       -0.19581573       2.60784674      -1.44830871
H       -0.19581573       2.60784674      -1.44830871
H       -0.19581573       2.60784674      -1.44830871
