21
Properties=species:S:1:pos:R:3 pbc="F F F"
H        0.00000000       0.00000000       0.00000000
H       -0.28865418       0.29845181      -0.93857825
H       -0.35541877      -0.55034733      -0.46619755
H        0.07100343      -0.98938280      -0.26344657
H        0.74733871      -0.41245037      -0.02249552
H        1.00063324      -1.07377601      -0.54044306
H        0.01982971      -1.04005945      -1.23446369
H        1.38035583      -0.17998523      -0.61122268
H        0.32097542      -0.11265254      -1.55470037
H        0.67561930       0.58582085      -0.50366294
H        0.11215161       0.58416420      -0.83070934
H        1.03872037      -0.48111388      -1.43390751
H        0.77845252       0.49420655      -0.37614232
H        0.46876547      -0.21810901      -0.38941300
H        1.05852640       0.25319955      -0.94192415
H        0.40994164      -0.30694091      -0.71298063
H        0.52640671      -0.49845865      -0.92791224
H        2.24114680       0.61222953      -1.58829641
H        2.24114680       0.61222953      -1.58829641
H        2.24114680       0.61222953      -1.58829641
H        2.24114680       0.61222953      -1.58829641
