21
Properties=species:S:1:pos:R:3 pbc="F F F"
H        0.00000000       0.00000000       0.00000000
H       -0.12270200      -0.91159266      -0.45526573
H       -0.83232874       0.22961354       0.55482459
H        0.23951748      -0.76011187       0.43575129
H       -0.21613532      -0.24004748       1.14455748
H       -1.01539361       0.40282008       1.10946584
H       -0.16396976      -0.29656377       1.25772762
H       -0.85154194       0.51914585      -0.21751094
H       -0.85154194       0.51914585      -0.21751094
H       -0.89821237       0.51914585      -0.22244382
H       -0.76132530      -0.75976926       0.29137802
H       -0.76132530      -0.75976926       0.29137802
H       -0.76132530      -0.75976926       0.29137802
H       -0.76132530      -0.75976926       0.29137802
H       -0.76132530      -0.75976926       0.29137802
H       -0.76132530      -0.75976926       0.29137802
H       -1.49943352      -0.96583271      -0.21957397
H       -1.05765319      -0.37515551      -0.67215163
H       -0.75212353      -0.75976926       0.29403216
H       -1.82107580       0.87140739       0.44153604
H       -1.82107580       0.87140739       0.44153604
