21
Properties=species:S:1:pos:R:3 pbc="F F F"
H        0.00000000       0.00000000       0.00000000
H        0.97460508       0.08895500       0.30912116
H       -0.85076147       0.08895500       0.56711179
H        0.05621357       0.81366080       0.53184313
H       -0.92274201       0.07114254       1.59074521
H        0.06422998      -0.46354809       0.91341203
H        0.91801029       0.53322893       1.11395371
H        0.16602033       0.33847034       1.78470266
H       -0.63701141       0.17791000       1.56697273
H       -0.06565839       0.30782041       0.24899983
H       -0.79999113      -0.94058567       0.24837101
H        1.15613389      -0.46502537       1.10349882
H        0.49450523      -0.74817199       0.44765097
H        0.20187329      -0.67354679       1.68959975
H       -0.28981459      -1.55048573       0.81033432
H       -1.16564083      -1.36571479       1.19354296
H        0.15940875       0.16737685       1.70046866
H        0.01781809      -0.86599886       0.53753841
H        0.13950336      -0.60992461       1.11881149
H        0.44573569       0.18121302       0.61172891
H        0.49667931       0.02229446       0.40223825
