21
Properties=species:S:1:pos:R:3 pbc="F F F"
H        0.00000000       0.00000000       0.00000000
H        0.46564069       0.84879911      -0.10382564
H        0.00000000       0.55622131       0.86252058
H        0.62619567      -0.28314662       0.68975925
H        1.40164971       1.14725089       0.19305378
H        0.96902996       0.08895500      -0.32617778
H        1.41095924       1.11299098       0.19600657
H       -0.32966861       0.62525213      -0.37152866
H       -0.32966861       0.62525213      -0.37152866
H        0.84486341       0.53051418       1.17781818
H        0.24884841       1.25767469      -0.23183332
H       -0.11704519       1.68276107      -0.39589056
H        0.38355616       1.60990357       1.01453698
H        0.85527295       1.36807609       0.58477062
H        0.07927685       1.47306633       0.90057594
H        0.33147699       0.29501843      -0.95816028
H        1.27655125       1.14637721       0.40419960
H        0.80409378       0.72137761       0.24565506
H        1.77233756       1.23492575       0.52342969
H        2.60618234       1.49986446       1.32146764
H        2.60618234       1.49986446       1.32146764
