21
Properties=species:S:1:pos:R:3 pbc="F F F"
H        0.00000000       0.00000000       0.00000000
H        0.41703188       0.87984765      -0.00365971
H        0.72001696      -0.15966894      -0.71372628
H        0.07171593       0.52769721      -0.81514013
H        0.85151279       0.70517546      -1.14129364
H        1.50029373       0.12198466      -0.70882082
H        1.27802455       1.31507552      -0.51346356
H        1.41598177       1.07460618       0.12859780
H        0.78964525       0.21783850       0.52637213
H        0.66373616       1.36525917      -0.77872783
H        1.25993931      -0.31933787       0.14436084
H        1.61730361       0.62096441       0.11906129
H        1.38188863       1.08741581      -0.75336063
H        0.98739529       0.24742502      -0.17360765
H        1.05608153       1.02556980      -0.38444117
H        2.15387154       0.79793185       0.01109999
H        2.11267614       0.83127069       0.01523417
H        1.96509147       0.80747885      -0.19684267
H        1.92235887      -0.27151513      -0.13216549
H        1.92235887      -0.27151513      -0.13216549
H        1.90929389      -0.24647668      -0.10676801
