21
Properties=species:S:1:pos:R:3 pbc="F F F"
H        0.00000000       0.00000000       0.00000000
H       -0.53245163       0.67024595      -0.56620628
H        0.05190712      -0.05230194      -1.00183606
H       -0.62689924      -0.29021692      -0.43716526
H       -0.33818352      -0.42061216      -0.33651188
H       -1.06671345      -0.04267627      -0.33244559
H       -0.81287587      -0.39711934      -0.31607759
H       -0.89549279       0.47548735      -1.50620317
H       -0.84988254      -0.06964028      -1.42773485
H       -0.85928184      -0.32167739      -1.16360688
H        0.30063552       0.59491581      -1.74737811
H       -0.24647290       0.62367821      -1.67494285
H       -0.19389597       0.52793825      -1.50998747
H       -0.15950075      -0.05132258      -1.01609302
H       -1.27604508      -0.23636222      -1.41473782
H       -1.38372588      -0.19665927      -1.35277009
H       -1.41278243      -0.23636222      -1.27186513
H       -1.17150688       0.00000000      -1.00858927
H        0.56420475      -0.55388004       0.20100346
H       -0.84209383      -0.05230194      -1.22603202
H       -0.51220113      -0.72503763      -0.95045757
