21
Properties=species:S:1:pos:R:3 pbc="F F F"
H        0.00000000       0.00000000       0.00000000
H        0.44047090       0.80291802      -0.09821343
H        0.00000000       0.73181123       0.64227200
H        0.79428488      -0.55577880      -0.09100734
H        1.37724578       0.99767661       0.27306244
H        0.87013990       0.08895500       0.53690553
H        0.61365247       0.44247550      -0.24651980
H        0.66625017       0.97895068      -0.53827095
H        0.63695282       0.86053205      -0.57170284
H        1.64918256       1.73040831      -0.21426967
H        1.64918256       1.73040831      -0.21426967
H        1.64918256       1.73040831      -0.21426967
H        1.64336360       1.71059883      -0.24584123
H        1.49534976       1.33482504       0.82551861
H        1.49772477       1.31501508       0.83662832
H        1.49534976       1.33482504       0.82551861
H        1.68465257       2.12506151       1.21354353
H        1.47492158       1.46084833       0.72996157
H        1.01420021       2.25115395       1.01265180
H        1.27709675       1.57118952       0.57945859
H        1.86845016       2.41255617       0.35572970
