21
Properties=species:S:1:pos:R:3 pbc="F F F"
H        0.00000000       0.00000000       0.00000000
H        0.88292891      -0.28314662      -0.29719594
H        0.91803384      -0.51276016       0.70248854
H        0.31033537      -0.60990006       0.69265777
H        1.11742103      -0.97575212       0.17488474
H        0.08367807      -0.23520926       0.15803808
H        0.54959106       0.07485059      -1.07762003
H        0.07004049       0.04608817      -0.80447960
H        0.23356947      -0.14869639      -0.30024487
H        2.56277227      -1.05108225       0.16220088
H        2.44628119      -0.13265163      -0.13942124
H        2.04334974      -1.26892078      -0.63203305
H        2.98114395      -0.94912404      -0.45662570
H        1.46753049      -0.49431866      -0.76042569
H        1.23730624      -0.82464683      -0.66742265
H        1.81022537       0.57642829       0.06232025
H        2.70137620       0.44566256       0.65635532
H        1.28447580      -0.12038845       0.60209602
H        2.11336851      -0.39189941       0.73420548
H        1.45208871      -0.18060869      -0.16743660
H        2.39057255      -0.75483567       0.14970136
