11
Properties=species:S:1:pos:R:3 pbc="F F F"
H        0.00000000       0.00000000       0.00000000
H       -0.21671417       0.94706190      -0.06457304
H       -0.36525771      -0.15966894      -0.94573593
H       -0.15993969       0.92833596      -1.14186287
H        0.45652378       0.17467529      -1.14727271
H        0.56165367      -0.01781246      -0.85880834
H        0.67289984       1.10673082      -0.55079991
H        0.02992271       0.25024515      -0.77657074
H        1.24935520       0.07440770      -0.61684883
H        0.66441739       0.47331887       0.12614620
H        1.32217562      -0.17812848      -1.44454312
