21
Properties=species:S:1:pos:R:3 pbc="F F F"
H        0.00000000       0.00000000       0.00000000
H        0.68725604      -0.43977645       0.53135377
H        0.64687997       0.51456094       0.72022128
H        0.94915599       0.31388423      -0.02673656
H        0.74869037      -0.25372428      -0.10430491
H        1.03793669      -0.22442824      -0.04230112
H        1.37358320      -0.04121786       0.38694477
H        1.27360988      -0.03126132      -0.04773611
H        1.35378265       0.98656875       0.36548901
H        0.33463895       1.31038272       1.34086883
H       -0.38355511       1.72975087       2.02822232
H       -0.39363742       1.69499648       2.03787184
H        0.32713377       1.26122832       1.34805179
H        0.25406671       1.21174288       1.27916098
H        2.34676337       0.88392836      -0.27154213
H        1.79449248       0.02628595      -0.15853629
H        2.67949533       1.19536662       0.35385504
H        3.47142935       0.66766942       0.14785199
H        1.83468342       1.38965499       0.40581518
H        3.74404955       1.59676719       0.04530188
H        2.79884052      -0.10369909       0.07078817
