21
Properties=species:S:1:pos:R:3 pbc="F F F"
H        0.00000000       0.00000000       0.00000000
H        0.93511528      -0.39891118      -0.14054634
H        1.24818301      -0.59366977       0.81725407
H        0.36055958      -0.30995619       0.70520580
H        0.31280500      -0.47566167       0.57393748
H        0.87200224       0.15966894      -0.51714766
H        1.77199960      -0.03110272      -0.40912664
H        1.74619138       0.10447502      -0.34870338
H        1.71498728       0.23248792      -0.27564692
H        0.80668247      -0.27182066       0.41176248
H        0.76993859      -0.17268325       0.44848633
H        0.28436959      -0.40289813       0.67996621
H        0.96552014       0.12438690      -0.32499635
H        1.08172703      -0.86023414       1.27182806
H        0.95351982       0.12438690      -0.35868043
H       -0.86469305       0.20606343       0.24120869
H       -0.86469305       0.20606343       0.24120869
H       -0.86469305       0.20606343       0.24120869
H       -0.87262547       0.20606343       0.21071397
H        1.24953794      -0.32381397       0.65473258
H        1.34682739      -0.22517416       0.47982043
