21
Properties=species:S:1:pos:R:3 pbc="F F F"
H        0.00000000       0.00000000       0.00000000
H       -0.02074104      -0.97334045      -0.01546210
H       -0.25021499      -1.86802053      -0.46291402
H       -0.60838175      -0.58319080      -0.48766899
H       -0.93786716      -1.34206891      -1.01412487
H        0.08403867      -0.36585209      -0.95520347
H       -0.01698875      -1.32608342      -1.02220619
H       -0.03994078      -0.98171508      -0.07800961
H       -0.55962425       0.08895500      -0.85570532
H       -0.70007592       0.17541744      -1.25459063
H       -0.70262080       0.12544936      -1.25915122
H       -0.61256605      -0.12544936      -1.30533552
H       -1.62091899      -0.04105617      -1.90772748
H       -1.62091899      -0.04105617      -1.90772748
H       -1.62091899      -0.04105617      -1.90772748
H       -1.62091899      -0.04105617      -1.90772748
H       -1.62091899      -0.04105617      -1.90772748
H       -1.62091899      -0.04105617      -1.90772748
H       -1.62091899      -0.04105617      -1.90772748
H       -1.62091899      -0.04105617      -1.90772748
H       -1.62091899      -0.04105617      -1.90772748
