21
Properties=species:S:1:pos:R:3 pbc="F F F"
H        0.00000000       0.00000000       0.00000000
H       -0.43620220       0.58582085      -0.72101700
H        0.39070353       0.23873037      -1.10024786
H       -0.11342534      -0.13972384      -0.35816473
H        0.32349911       1.17164171      -0.35633665
H       -0.68582857       1.64738667      -0.54447341
H       -1.62556767       1.97973883      -0.78892446
H       -0.59144902       1.71746397      -0.73767459
H       -0.54492104       1.84940398      -0.61509466
H       -1.76875412       1.56438649      -1.12415838
H       -1.76875412       1.56438649      -1.12415838
H       -1.76875412       1.56438649      -1.12415838
H       -1.77433002       1.57728803      -1.13721287
H       -1.33700371       1.22013712      -0.07909113
H       -1.33700371       1.22013712      -0.07909113
H       -1.33700371       1.22013712      -0.07909113
H       -1.33700371       1.22013712      -0.07909113
H       -1.31227016       1.22013712      -0.08965534
H       -2.36393428       1.25620699       0.29795921
H       -2.36393428       1.25620699       0.29795921
H       -2.36393428       1.25620699       0.29795921
