12
Properties=species:S:1:pos:R:3 pbc="F F F"
H        0.00000000       0.00000000       0.00000000
H       -0.37664786      -0.36585209      -0.88182342
H       -0.33502379       0.46966103      -0.78437138
H       -0.86292613      -0.23941889      -0.37622219
H       -0.67592573      -0.17604525      -0.89028275
H       -0.39655823      -0.51109153      -0.92843831
H        0.62550056      -0.05762264      -0.33702844
H        0.62550056      -0.05762264      -0.33702844
H        0.62550056      -0.05762264      -0.33702844
H        0.55326068      -0.50861764      -0.64813387
H       -0.92626017       0.15834975      -0.07996404
H        0.40562654      -0.25238481      -0.24496034
