5
Properties=species:S:1:pos:R:3 pbc="F F F"
H        0.00000000       0.00000000       0.00000000
H        0.97460508       0.08895500       0.30912116
H        0.46658099       0.08895500      -0.90978736
H        0.99933797       0.22961354      -0.04387616
H        0.43994421      -0.52094507      -0.15125364
