21
Properties=species:S:1:pos:R:3 pbc="F F F"
H        0.00000000       0.00000000       0.00000000
H        0.15607943       0.96046287      -0.03480161
H       -0.75432932      -0.25064358      -0.56233966
H       -0.68026692       0.90978622      -0.53080326
H       -0.47740811       0.13518411       0.02318299
H       -0.27240729       0.54467964      -1.20497143
H       -0.45781356       0.40205291      -1.05246294
H        0.39071107       0.38925356      -1.04525793
H        0.39071107       0.49645573       0.18692958
H        0.43395394       0.49645573       0.18617046
H        0.34746805       0.49645573       0.18617046
H       -0.33190584       1.44620848       1.29783559
H       -0.33190584       1.44620848       1.29783559
H       -0.33190584       1.44620848       1.29783559
H       -0.33190584       1.44620848       1.29783559
H       -0.33190584       1.44620848       1.29783559
H       -0.33190584       1.44620848       1.29783559
H       -0.33190584       1.44620848       1.29783559
H       -0.33190584       1.44620848       1.29783559
H       -0.33190584       1.44620848       1.29783559
H       -0.33190584       1.44620848       1.29783559
