21
Properties=species:S:1:pos:R:3 pbc="F F F"
H        0.00000000       0.00000000       0.00000000
H       -0.26684549      -0.92909771       0.11675546
H        0.61824918      -0.56324565      -0.25213975
H        1.16027689       0.23136449      -0.10093962
H        0.23358735       0.25322676       0.23646235
H       -0.14289093      -0.15775001       0.49598238
H        0.35822201       0.07169555       0.51917136
H        0.97411776       1.06365275       0.24688046
H        1.05794191      -1.08338881      -0.79091293
H        0.76002741      -0.71753669       0.12052715
H        1.31783223       1.14979506      -0.38329118
H       -1.18572867      -1.90647805       0.07641163
H        1.38475835      -1.52302790      -0.86378437
H        1.22362757       1.24331188      -1.45404220
H        0.56018317      -0.43069232      -0.50740159
H        1.78356934       0.37465712      -0.76374543
H        1.82852674       0.37465712      -0.71839172
H        0.59317070       0.63693285       0.03600022
H        2.40428686      -0.20324990       0.15361007
H        2.40428686      -0.20324990       0.15361007
H        2.40428686      -0.20324990       0.15361007
