21
Properties=species:S:1:pos:R:3 pbc="F F F"
H        0.00000000       0.00000000       0.00000000
H        0.63848275      -0.52769721      -0.51179713
H        0.53052825      -0.05341591      -0.87693238
H        0.26511088      -0.12438690      -0.98365033
H       -0.53014147       0.87668937      -0.06074250
H       -0.36888933       0.94366693      -0.58506435
H       -0.18802954       0.93407559      -1.10717487
H       -0.78279120       1.61956978      -1.45990288
H       -0.10856915       0.80141973      -0.81623334
H       -1.51318645       1.59810352      -0.46198493
H       -1.15802324       2.32065153      -1.09846544
H       -1.20848799       2.68650365      -2.05602980
H       -1.82282865       0.87555563      -1.12181067
H       -1.19479942       1.42481124      -0.54031479
H       -1.33494473       3.69159317      -1.55177319
H       -1.86154068       0.90431803      -0.57128745
H       -1.15152633       3.50682211      -2.49000478
H       -1.53956294       2.78493619      -1.84188604
H       -2.21592808       0.41527352      -2.13963556
H       -2.89733839      -0.24580911      -1.92350876
H       -2.54091835       0.61183333      -2.36024475
