6
Properties=species:S:1:pos:R:3 pbc="F F F"
H        0.00000000       0.00000000       0.00000000
H       -0.61304885      -0.15966894      -0.80746567
H       -0.49592432       0.43148959       0.78816223
H       -0.57768542       0.03508964       0.19958067
H       -1.07671201       0.23673101      -0.03529310
H       -0.37877062       0.61626053      -0.16062421
