15
Properties=species:S:1:pos:R:3 pbc="F F F"
H        0.00000000       0.00000000       0.00000000
H       -0.47398776      -0.23709527       0.75329894
H       -0.17015067       0.70500839       1.02431095
H        0.05861580       0.63959408       0.78605682
H       -0.24839953       0.85764241       0.50603473
H       -0.79873496      -0.90927911       1.19699168
H        0.00452310      -1.61389661       1.04726577
H       -0.49105945       0.04638618       0.98400474
H       -0.79659545      -2.41055202       0.98386270
H       -0.80844676      -2.14159393       0.95411742
H       -0.45571938      -1.80823803       1.02705872
H       -1.05083323      -0.98269033      -0.15793861
H       -0.77210927      -0.60423613       0.69479018
H       -0.27752125      -0.48351735      -0.19189104
H       -0.69705313      -0.04058665       0.04356608
