21
Properties=species:S:1:pos:R:3 pbc="F F F"
H        0.00000000       0.00000000       0.00000000
H        0.73469222      -0.22961354      -0.67884368
H        0.67033863      -0.49897972      -0.49972630
H       -0.74643505       0.58582085       0.39111695
H       -0.18046266       0.28736904      -0.41133282
H       -0.41329736       1.51322770       0.10430765
H       -0.24646193       0.11517203      -0.14055172
H       -0.10721996       1.24666333      -0.27074134
H        0.08082214       1.22064018       0.19181997
H        0.71484435       0.61913741      -0.09895170
H        1.47889543       1.01137042       0.02963430
H        0.61320442       0.57988083       0.37273729
H        0.65881878       0.73014933       0.08007310
H       -0.93336546       0.12635696       0.12583447
H       -0.50551349       0.85139012      -0.04388294
H       -0.90023136       0.26397300       0.43659729
H        0.11106712       1.64911413      -0.58023417
H        0.11321019       1.66201568      -0.56107682
H        0.60142088       2.50014067      -0.69100624
H        1.15106368       3.48658276      -0.61823547
H        1.15106368       3.48658276      -0.61823547
