9
Properties=species:S:1:pos:R:3 pbc="F F F"
H        0.00000000       0.00000000       0.00000000
H       -0.39122835      -0.01598554      -0.83368021
H        0.79591227       0.39891118      -0.51060498
H        0.24174315       1.25655365      -0.61390102
H       -0.24662611       0.95566529      -0.28143072
H       -0.00157619       1.02694011       0.35635519
H        0.49402404       0.52474242      -1.20455122
H       -0.08011460       0.30088836      -0.80478126
H        0.19134319       0.55727911      -0.47446454
