7
Properties=species:S:1:pos:R:3 pbc="F F F"
H        0.00000000       0.00000000       0.00000000
H        0.38154608      -0.49897972      -0.74397767
H       -0.20075168      -1.00592303       0.03378555
H        0.49069130      -0.25851452      -0.09509823
H        0.12352255      -0.95533127      -0.75309324
H       -0.32944891      -0.82406586      -0.70203257
H       -0.57518905      -0.34709048      -0.70480251
