6
Properties=species:S:1:pos:R:3 pbc="F F F"
H        0.00000000       0.00000000       0.00000000
H        0.13252793       0.60990006       0.74734145
H       -0.16489175       0.95566529       0.33591428
H        0.12690160       0.09802288      -0.14640313
H        0.05998407       1.34074163       0.88908219
H        0.14930446       0.61819375       0.16570795
