7
Properties=species:S:1:pos:R:3 pbc="F F F"
H        0.00000000       0.00000000       0.00000000
H       -0.27385142       0.28314662      -0.89044607
H       -0.33299938      -0.51146352      -0.33084166
H       -0.23529094      -0.93864530      -0.10790782
H       -0.14459825      -0.21301171      -1.29456115
H        0.23682344      -0.82291174      -0.63835967
H        0.22500372      -0.11949492      -0.28521669
