21
Properties=species:S:1:pos:R:3 pbc="F F F"
H        0.00000000       0.00000000       0.00000000
H        0.12256700       0.83228827       0.37498182
H       -0.20299627       0.33235219       0.94955701
H        0.62086642       0.29845181      -0.76077276
H        0.57396942       1.00259817       0.97001630
H        1.08413160       0.88296491       0.23046021
H       -0.06222677       0.44993261      -1.43789768
H        0.01849489      -0.47916511      -1.15803635
H        1.25577044       0.03828812       0.33636716
H        0.34872881       0.59690362       0.18272686
H       -0.72227073       0.74838442      -0.71085417
H       -0.21540886       1.56204522      -0.88146508
H       -0.59780896       1.54514623      -1.77675581
H       -1.08284819       0.22068721       0.02370727
H       -1.38068771       1.29450262      -1.25489426
H       -1.90837097       2.17119193      -1.33420420
H       -1.15843165       2.26769400      -1.31097627
H       -1.82643437      -0.18867475      -0.45332864
H       -0.93863016      -0.03719395      -0.82335317
H       -0.35918087       2.31563139      -0.85574210
H       -0.71458858       1.33041239      -0.67189264
