21
Properties=species:S:1:pos:R:3 pbc="F F F"
H        0.00000000       0.00000000       0.00000000
H        0.49089283       0.77460212       0.32722577
H       -0.38491446       1.18396401       0.44317955
H        0.20760870       0.68891597      -0.23296213
H       -0.67889458       0.34709048       0.60555041
H       -0.52842671       0.52769721       0.62478936
H        0.57731700       1.08782744      -0.76040238
H        1.03786159       0.56739229      -1.58573461
H        0.24142092       0.15803033      -1.20341802
H        0.58860755      -0.24908012      -1.15577233
H        1.29992700       0.16848111      -0.67715573
H        0.57075489       0.39202809      -0.26183686
H        0.59118867       0.50602138      -0.30579111
H       -0.24490625       0.84074813       0.13582492
H       -1.10470867       0.57892394      -0.87836641
H       -1.10470867       0.57892394      -0.87836641
H       -1.10470867       0.57892394      -0.87836641
H       -1.10470867       0.57892394      -0.87836641
H       -1.10470867       0.57892394      -0.87836641
H       -1.10470867       0.57892394      -0.87836641
H       -1.10470867       0.57892394      -0.87836641
