6
Properties=species:S:1:pos:R:3 pbc="F F F"
H        0.00000000       0.00000000       0.00000000
H       -0.56912082      -0.52595156       0.67290437
H       -0.98723358       0.05341591       0.27539173
H       -0.88638610       0.26419187      -0.44479898
H       -1.09867787      -0.59345055       0.07741329
H       -0.41653550      -0.61034477      -0.28503948
