21
Properties=species:S:1:pos:R:3 pbc="F F F"
H        0.00000000       0.00000000       0.00000000
H       -0.81573808      -0.52769721      -0.06456009
H       -0.56462926       0.18477097       0.77143657
H       -0.76288199       0.36698288       0.43551764
H       -0.41487184      -0.87478769       0.75207651
H       -0.74483168      -0.49017394      -0.20046014
H        0.52950454       0.04316890       1.00098801
H        0.52950454       0.04316890       1.00098801
H        0.52950454       0.04316890       1.00098801
H        0.52950454       0.04316890       1.00098801
H        0.52950454       0.04316890       1.00098801
H        0.82222223       0.85682970       0.55340183
H        0.90643448       0.96663475       0.46656734
H        0.52950454       0.04316890       1.00098801
H        0.52950454       0.04316890       1.00098801
H        0.52950454       0.04316890       1.00098801
H        0.52950454       0.04316890       1.00098801
H        0.52950454       0.04316890       1.00098801
H        0.52950454       0.04316890       1.00098801
H        0.52950454       0.04316890       1.00098801
H        0.52950454       0.04316890       1.00098801
