21
Properties=species:S:1:pos:R:3 pbc="F F F"
H        0.00000000       0.00000000       0.00000000
H       -0.12270200      -0.91159266      -0.45526573
H       -0.66027015       0.08895500       0.78067553
H       -1.04519176      -0.69375420      -0.23251095
H       -0.45456100      -0.80483580       1.10760474
H        0.19181502      -0.33517477       0.55111814
H       -1.29747260       0.03805703      -0.82316113
H       -0.93513429      -0.79089266       0.46702173
H       -0.19597775      -0.99825430      -0.13566469
H       -0.84246612       0.33756086      -0.73005760
H       -1.73956966      -0.00952962      -0.57907939
H        0.16524494       0.16151561      -0.24632484
H        0.15246332       0.20041631      -0.20873469
H       -0.00241446      -0.17353067      -0.17008495
H       -0.66498852      -0.18266267       0.70274389
H       -0.13407421      -0.32731459       0.32967916
H       -0.90239108       0.71404052      -0.53680909
H       -0.88787085       0.67148054      -0.68666899
H       -0.80146885      -1.58166194      -0.20891117
H       -1.09218872      -1.55140257       0.10000727
H       -2.09590554      -0.08757591      -0.80678844
