21
Properties=species:S:1:pos:R:3 pbc="F F F"
H        0.00000000       0.00000000       0.00000000
H        0.50912565      -0.18477097       0.80914259
H       -0.47402412       0.07942089       0.93930811
H        0.21345133      -0.23588762       1.55251205
H        0.40001100      -0.18521097       0.59821212
H       -1.28231990       0.30296788       1.16478467
H       -0.38482434      -0.06288421       0.82717860
H        0.22533245       0.53548086       0.87562692
H        0.57998300       1.49114609       0.75625074
H        0.55516922       1.50355625       0.78982759
H        0.41919923       1.36413550       1.04854929
H        0.48297608       1.30682850       1.18025386
H        1.21902549       0.34072226       1.04286051
H        1.21082747       0.37581193       1.11359584
H        1.19640756       0.41109395       1.18362844
H        0.97339427       0.04043278       1.37427974
H        0.44877118      -0.25891817       1.48581481
H        0.14177157      -0.67401493       1.66620445
H        0.13740984      -0.64569640       1.70747137
H        0.29649100      -0.23588765       1.54886615
H        0.32789597      -0.48213565       0.96083933
