21
Properties=species:S:1:pos:R:3 pbc="F F F"
H        0.00000000       0.00000000       0.00000000
H       -0.92830116      -0.43148959      -0.07346868
H       -0.27283424      -0.70907992       0.60895658
H       -0.83268034      -0.77858007       0.83121121
H       -0.71559155       0.36585209       0.63828284
H       -0.67355555       0.55002785       1.38289547
H       -0.93724287       1.42987549       1.05978870
H       -0.40419209       0.55002785       1.21340764
H       -0.49803871       0.48314834       1.45645666
H       -0.37934560       0.82136446      -0.12905109
H       -0.28742272       0.86730844      -0.10474014
H       -0.23726404       0.91393018      -0.09723556
H       -0.48090866       0.37257829       1.31331158
H       -0.33685192       0.42089361       1.34322536
H       -0.26026621      -0.94202948       0.21756962
H       -0.26026621      -0.94202948       0.21756962
H       -0.26026621      -0.94202948       0.21756962
H       -0.24578196      -0.94202948       0.23380816
H       -1.35670793       0.42089361       0.27761003
H       -1.35670793       0.42089361       0.27761003
H       -1.34612966       0.42089361       0.32505161
