21
Properties=species:S:1:pos:R:3 pbc="F F F"
H        0.00000000       0.00000000       0.00000000
H       -0.46163812      -0.66108263       0.54582143
H       -0.01677756      -0.18477097      -0.95584470
H       -0.30001140      -0.95566529      -0.22365341
H       -0.51421571      -1.88307214      -0.60752422
H        0.03219306      -1.93374872       0.19679558
H       -0.44375911      -0.78546953      -0.47277176
H        0.74241048      -2.59483147       0.11542049
H       -0.32072282      -2.67768240      -0.07911521
H       -0.30575404      -2.20802140      -0.93190783
H       -0.47604114      -0.83746743      -1.29821789
H        0.89552635      -2.05086660      -0.54398286
H        0.46094167      -1.85386932      -0.82278371
H        0.06531149      -2.03488111      -0.14545360
H        0.48366049      -1.50397336      -0.03803320
H        0.48544052      -1.88190925       0.63891470
H        1.50843740      -3.66252613       0.38832510
H        1.49838817      -3.66252613       0.41504025
H        1.49838817      -3.66252613       0.41504025
H        1.54288173      -3.63366103       0.40059620
H        1.49838817      -3.66252613       0.41504025
