21
Properties=species:S:1:pos:R:3 pbc="F F F"
H        0.00000000       0.00000000       0.00000000
H        0.05739931      -0.52769721       0.81627315
H        0.64810205       0.69681674      -0.38436192
H        0.29801464       0.72254789       0.66515839
H       -0.60660684       0.60453981       0.32487184
H        0.45427155      -0.04217243      -1.21910477
H       -0.00269025      -1.42791045       0.13328242
H        0.76408684       1.05771852       0.01775643
H        0.71993279      -0.67804682      -1.90696287
H       -0.57140082      -0.70536256      -0.32258675
H        0.47112420      -1.37723386      -0.71583045
H        0.54258907       0.36090177      -0.70245814
H        0.20520040      -0.13863289       1.17984629
H        1.29260826      -0.09485602      -2.43610573
H        0.06058728      -0.40628314       0.20809910
H        0.75311869      -0.27913564      -0.96192712
H        1.34872663       0.54801154      -1.63804817
H        0.02948511      -0.56076145      -1.15361083
H        1.31822097       0.37579280      -1.70673013
H        1.09130514      -0.83326894      -0.44447669
H        1.04591167      -0.78761965      -0.43991452
