21
Properties=species:S:1:pos:R:3 pbc="F F F"
H        0.00000000       0.00000000       0.00000000
H        0.05110265      -0.33235219      -0.96966726
H        0.43774071      -0.73126340      -0.10670441
H        0.93839037       0.02239728       0.25302660
H        1.02204370      -0.26160237      -0.72804910
H        0.48471010       0.59604001      -0.55761993
H        0.48258701       0.58929563      -0.61117899
H       -0.00758636      -0.95974720       0.01176918
H       -0.00758636      -0.95974720       0.01176918
H        1.38201189       0.09929934      -0.94153106
H        0.85497886      -0.76739144      -0.44062924
H        1.01477849      -0.98607397      -0.11010224
H        0.96006590      -0.84829748       0.03156263
H        0.81623483      -0.50776964       0.24634117
H        0.88410521      -1.01897788      -0.52432543
H       -0.29642683       0.38798606      -0.42988849
H       -0.29642683       0.38798606      -0.42988849
H       -0.25637546       0.40548754      -0.39946479
H        0.47897780       0.00000000      -0.09800863
H       -0.40500498      -0.48677653      -0.64027846
H        0.50273401      -0.38576812      -0.04961300
