6
Properties=species:S:1:pos:R:3 pbc="F F F"
H        0.00000000       0.00000000       0.00000000
H        0.36925858       0.05341591      -0.95609558
H        0.21425545      -0.72254789      -0.69666559
H       -0.15129673      -0.15148079      -0.94985455
H        0.50957793      -0.74323952      -0.16481727
H        0.37685186      -0.00142539      -0.59638494
