21
Properties=species:S:1:pos:R:3 pbc="F F F"
H        0.00000000       0.00000000       0.00000000
H       -0.33764970       0.29845181       0.92208624
H       -0.35261843      -0.17120922       0.06929362
H       -0.05353883       0.18044370      -0.00171888
H        0.19469368       0.44070899       0.87995487
H       -1.04505050      -0.12185806       1.37130797
H        0.66200858       0.61966789       0.64545065
H       -0.76874459       0.43355632       1.66374588
H       -1.12995672      -0.45285827       0.93699074
H       -0.90005523      -0.86222023       0.08397895
H       -0.04752123       0.13510451       0.99734718
H       -0.72226065      -1.22312188      -0.29488873
H        0.29421300      -1.03888845       0.28407037
H        0.79491031      -1.47866488      -0.42583078
H       -0.86994702       0.70012069       2.13714123
H        0.27811044      -1.07959855       0.32237375
H        0.53003144      -2.22607327       0.22573936
H        0.56212622      -2.25003338       0.20987844
H        1.21292269      -1.34356034      -1.17494190
H        1.21292269      -1.34356034      -1.17494190
H        1.21292269      -1.34356034      -1.17494190
