21
Properties=species:S:1:pos:R:3 pbc="F F F"
H        0.00000000       0.00000000       0.00000000
H       -0.51304650      -0.77136850      -0.44169885
H       -0.23127550      -1.62016761      -0.05672336
H        0.24711120      -0.80924171       0.47022319
H       -0.11380068      -0.83756196      -0.58211952
H       -0.20896441      -0.92724979       1.32235575
H       -0.15466157      -0.73273170       0.53621072
H       -0.34390473      -1.06235433       0.47518820
H       -1.04230165      -0.85198015       1.55481768
H       -1.29141605      -0.93795574       1.06906891
H       -1.28196323      -0.81431764       0.53052837
H       -1.66731215      -0.70944762       0.14854640
H       -1.04697442      -0.00036770       0.39440745
H       -0.37229091       0.76791751       0.87918675
H       -0.26436788       0.76791751       0.67321873
H       -0.27581173       0.67739457       0.87024069
H       -0.38971955       0.76791751       0.90256572
H       -0.22218823       0.54545456       0.94420427
H       -0.04315255      -0.28539994       0.40827039
H       -0.06991176      -0.29947636       0.39424136
H       -0.06409734      -0.33947486       0.36145312
