7
Properties=species:S:1:pos:R:3 pbc="F F F"
H        0.00000000       0.00000000       0.00000000
H        0.14728610      -1.02954066      -0.28719354
H        0.91593719      -0.19475858      -0.42006195
H       -0.04238823      -0.30699277      -0.99094921
H        0.77594954      -0.42437214       0.57039499
H        0.81145835      -0.28918031      -0.42178094
H        1.21955609      -0.02909890       0.45500115
