7
Properties=species:S:1:pos:R:3 pbc="F F F"
H        0.00000000       0.00000000       0.00000000
H       -0.04850490       0.68549418       0.68978679
H       -0.86867684       0.43977645      -0.00762303
H       -0.22871047       0.77212864      -0.73790312
H       -0.60608125      -0.28277144      -0.68754357
H       -0.10302541      -0.33212233       0.81147468
H       -0.85590208       0.13142577       0.29029930
