21
Properties=species:S:1:pos:R:3 pbc="F F F"
H        0.00000000       0.00000000       0.00000000
H        0.35866648      -0.83756196      -0.47241095
H       -0.30893457      -1.60893047      -0.36005688
H       -0.80763149      -0.21783850       0.49833587
H        0.34201157      -0.61972344      -1.42126811
H       -0.31081754      -1.22962356      -1.80843353
H       -1.03772998      -1.29362202       0.20341337
H       -0.00823104       0.33594185      -1.55301702
H       -0.15640911       0.69393909      -0.71742195
H       -0.68331194      -1.87677181      -1.15782905
H       -1.09448898      -1.18591392       0.31430703
H       -1.15602779      -0.24386163       0.85602689
H       -0.88765961       0.24698685      -2.07456899
H       -1.61500001       0.64589804      -1.47027612
H       -1.00265300      -0.73045057      -2.15560484
H       -0.29239136      -2.71433377      -1.60391748
H       -2.24091434      -0.14850098      -1.29567552
H        0.26250726      -2.55466485      -2.45239687
H       -1.18229985       0.94434988      -0.58878815
H        1.17520165      -2.83781147      -2.26564121
H        0.25060648      -1.60760295      -2.67821336
