21
Properties=species:S:1:pos:R:3 pbc="F F F"
H        0.00000000       0.00000000       0.00000000
H        0.42017129      -0.49897972       0.72286665
H       -0.10027859      -0.52769721      -0.81212115
H        0.12219233      -1.32486200      -0.54908097
H        1.31725132      -0.03543162       0.90642738
H        0.88025564      -1.55447555      -1.20172286
H        0.47503981      -1.30704951       0.41450876
H        1.49067378       0.73917049       0.34253281
H        0.73662430       0.67024595      -0.24794947
H        1.05144942       0.51876515      -1.15679467
H        1.47530198      -1.53666306       0.40573084
H        1.01969635      -0.80081487      -1.80223322
H        1.97374368      -0.74205291       0.66690421
H        1.74304771      -1.71414447      -0.66935122
H        2.58002400      -0.37620082      -0.07599562
H        2.25712585       0.55439949      -0.22884440
H        1.92164826       0.50098360      -1.19730997
H        1.53007174      -1.58975756       0.32688820
H        1.89861035      -0.42236066      -1.62238955
H        0.48688534      -0.19534501      -1.58549333
H        2.46929550       0.38083616      -0.48683530
