21
Properties=species:S:1:pos:R:3 pbc="F F F"
H        0.00000000       0.00000000       0.00000000
H       -0.50007260       0.47200781      -0.61275923
H       -0.36002165       0.18477097       0.88560998
H       -1.11665690       0.79467106       0.82572746
H        0.07096046       1.16882455      -1.10438061
H       -0.86395246       1.68935108       1.26048255
H        0.08312571       1.56496418       1.63584197
H       -1.20044148       0.97944200      -0.12658590
H        0.32816109       0.64653355       1.42488289
H       -0.23033509       2.04867220      -0.81602323
H        0.67089856       2.22604680       1.22895885
H        0.97007835       0.33235219      -0.04259151
H        1.32716942       1.64285600       0.80793864
H        1.19361234       0.69579411       0.99041384
H       -1.00666475       1.96882486      -0.31866962
H       -0.80023831       2.32682204       0.50447315
H        0.10664517       2.67391253       0.43269950
H        1.00578773       0.24217683       0.02964300
H        0.57828081      -0.53486323      -0.88423240
H        0.58798730       1.43752074      -0.09491342
H        0.58798730       1.43752074      -0.09491342
