20
Properties=species:S:1:pos:R:3 pbc="F F F"
H        0.00000000       0.00000000       0.00000000
H        0.73469222      -0.22961354      -0.67884368
H        0.22677782      -0.52769721       0.78623688
H        0.04727381       0.94706190       0.22113320
H        1.26138282       0.56499660      -0.87696612
H        0.40066579       0.13338542       1.47962976
H        1.39614356      -0.89985949      -0.27070600
H        1.31191957      -0.05138555       1.76865745
H        1.86707997       0.78617644       1.55982578
H        1.68210506      -0.78319681       1.24379933
H        0.85297406       1.25049078      -0.31896895
H        1.50299072       1.53363740       0.34838945
H        2.18265915       0.44698849      -0.58475953
H        2.32548928       0.94781655       0.16499390
H        1.14139664       1.29224885       1.33586526
H        0.21624571       0.86075926       1.22986341
H        2.26088858      -0.50867677      -0.21882531
H        2.58272767       0.59141785       0.85043067
H        2.41622758      -0.31964871       0.69652319
H        0.96331078      -1.09850526       0.66762543
