21
Properties=species:S:1:pos:R:3 pbc="F F F"
H        0.00000000       0.00000000       0.00000000
H        0.02715597      -1.02162731       0.09414954
H        0.24484433       0.25064358      -0.90845472
H       -0.91869527      -1.32007909       0.35799754
H       -0.54237187       0.62909782      -1.33871520
H       -1.31511784      -1.75985551      -0.41498804
H       -0.90251714       0.31530851       0.18467337
H       -0.64818740      -1.74295652      -1.12419820
H       -2.08101177      -1.23215830      -0.70309031
H       -1.29028463       0.67977446      -0.71733022
H       -1.86412370      -0.86630619      -1.63713288
H        0.21113098      -1.38747942      -0.84692931
H       -0.82328534       0.04590702      -2.06606460
H       -0.14632207      -0.72546148      -2.07200527
H        0.60095102      -0.59469575      -1.30479574
H       -2.21767998      -0.37381548      -0.06379646
H       -1.45048189      -0.54233390       0.31699112
H       -0.97257620      -1.18161464      -1.86904812
H       -2.01698780       0.12399566      -1.05060673
H       -2.12913370      -0.60781556      -0.41820133
H       -1.73787034      -0.20473656      -1.84521866
