20
Properties=species:S:1:pos:R:3 pbc="F F F"
H        0.00000000       0.00000000       0.00000000
H       -0.46163812      -0.66108263       0.54582143
H        0.74647850       0.37845421       0.49759740
H       -0.37581238      -1.52592707       0.10680094
H        0.10959432      -2.14064169       0.76999795
H        1.00364149      -2.37025523       0.32135436
H        0.02258715      -0.64327019       1.45054936
H        1.14767706      -1.90670717      -0.58291376
H        0.74647850      -0.11659387       1.39662528
H        1.58101165      -0.61557359       1.44795334
H        0.35520154      -0.49897972      -0.75690949
H        0.37039343      -1.54992712       1.52171755
H        1.39338505      -1.49651122       1.58463681
H        2.10834384      -0.49118668       0.57630402
H        1.86540234      -1.32977474      -0.56401438
H        1.78235912      -2.00440311       0.88088524
H        0.21251068      -1.43241024      -0.79278672
H        1.63286448       0.11426234       0.05279827
H        1.32339191      -0.41458651      -0.69736075
H        2.29438996      -1.34667373       0.30991066
