20
Properties=species:S:1:pos:R:3 pbc="F F F"
H        0.00000000       0.00000000       0.00000000
H        0.13252793       0.60990006       0.74734145
H       -0.52155960       0.55622131      -0.68696243
H        0.08331448       0.78583485      -1.48366117
H        0.35237786       1.77521765      -1.43837917
H        0.93579358      -0.15966894      -0.39002582
H        0.97456503       0.29078677      -1.36566269
H        1.66581547       0.97628093      -1.34746051
H       -0.68368959       1.46781397      -0.24420229
H       -0.25625193       1.38342071       0.62656498
H       -0.09158319       2.18457961      -0.67458451
H        0.60116750       2.55043173      -0.01158184
H        1.31400633       1.85961092      -1.31106293
H        1.65204680       0.27182066       0.20505568
H        2.08386946       0.88732594      -0.41437858
H        0.53220701       2.11597157       0.70291173
H        1.51040888       2.32081819      -0.42857298
H        1.98658502       1.68494380       0.13443759
H        1.31215382       1.64396381       0.83417290
H        1.14613628       0.69885504       0.88153970
