20
Properties=species:S:1:pos:R:3 pbc="F F F"
H        0.00000000       0.00000000       0.00000000
H        0.12256700       0.83228827       0.37498182
H       -0.72734034      -0.39891118       0.60429287
H        0.88656050      -0.49504808       0.14920373
H       -0.30771175      -1.19331026       1.10044396
H        1.04942727       0.88296491       0.66895950
H       -0.30771175      -1.06892335       2.11919403
H       -0.80962658      -0.17424327       2.15006423
H        1.53534138       0.08814272       0.58167660
H       -1.01110661       0.29790556       1.30232370
H       -0.47529185       0.95029634       1.13438940
H        0.98236877       1.06773591       1.62259662
H        0.06782508       1.06830442       1.93386364
H        0.67453671      -1.24672616       0.80776894
H        1.79740691      -0.31076846       1.49025548
H        1.28342009      -1.18745780       1.63363361
H       -0.07737726       0.41157758       2.56713581
H        0.65324461      -1.06307089       2.43409014
H        0.79839993      -0.15641397       2.75807166
H        1.47622490       0.28336248       2.21473837
