20
Properties=species:S:1:pos:R:3 pbc="F F F"
H        0.00000000       0.00000000       0.00000000
H        0.36038706      -0.22961354      -0.93312520
H       -0.71824318      -0.69681674       0.22780931
H       -0.64817554      -1.25259554      -0.56859595
H       -0.06591940      -0.84323359      -1.23302174
H       -0.28240129      -2.18000245      -0.32477334
H        1.31853259      -0.34762165      -0.80627006
H        0.72564495      -0.05067664       0.64724982
H        1.41387093      -1.27671933      -1.08149529
H        0.51366460      -0.80433732       1.22614598
H        1.56784165      -0.29420573       0.18787062
H        1.77421308      -1.80267096      -0.27722394
H        1.86332083      -1.22161269       0.51334310
H       -0.41008002      -1.22451401       0.98585415
H        1.19747424      -1.48983145       1.12337053
H       -0.24271278      -2.14294457       0.70920587
H        0.55646992      -2.36477351      -0.78326619
H        0.63684052      -1.50431621      -1.36401498
H        1.10815227      -2.48816514      -0.09142430
H        0.72448289      -2.26443362       0.77076352
