21
Properties=species:S:1:pos:R:3 pbc="F F F"
H        0.00000000       0.00000000       0.00000000
H       -0.07115869       0.77136850       0.67323917
H        0.65862775       1.35455930       0.39871934
H        0.16006935       2.17103171       0.02705249
H        0.71564764       0.19475858      -0.70939511
H        1.42432761      -0.46632403      -0.61556834
H        0.49191204       2.33070064      -0.93091941
H       -0.85675931       2.04664493       0.08959252
H       -0.98957652       1.15285420       0.45230255
H        1.16782045       0.94519734      -0.32322696
H       -0.34241769       2.24630737      -1.42572510
H        2.30152631      -0.03483444      -0.30305767
H       -1.39897513       0.68084639      -0.22440955
H       -1.44222796       1.29556096      -1.04512823
H        2.47632027      -0.53381419       0.51457751
H        2.16464162       0.97754520      -0.20470223
H        1.74416089      -1.20406008       0.77541625
H       -1.07796872       2.28597784      -0.82036805
H        1.14983976      -1.18887186       0.05963886
H       -0.81517047      -0.05096483      -0.49215078
H        1.03646719       1.55609846      -1.15788245
