21
Properties=species:S:1:pos:R:3 pbc="F F F"
H        0.00000000       0.00000000       0.00000000
H        0.79402828      -0.31375703       0.65969908
H        1.59159446      -0.39815024       0.10758764
H        0.55707932      -1.22534966       1.06734824
H        1.90589690      -1.31658089       0.18348269
H        1.92293811      -1.64893305      -0.78738058
H        1.44231522      -0.18031174      -0.82960117
H        1.36075807      -2.44354320      -0.81206328
H       -0.38283163      -1.48954153       0.75097191
H        0.44513267       0.04930180      -0.90852135
H        1.60773087      -0.97492188      -1.36746097
H        1.26233792      -1.92216635       0.80205488
H        0.64773256      -2.19289970      -1.42593074
H        0.90440428      -2.60766053       0.21041131
H        0.77508187      -1.25806856      -1.78529406
H       -0.19058330      -2.36623096       0.25319666
H        0.96557927      -2.56155133       0.06996208
H        0.04058999      -0.67487776      -1.52362430
H        0.87935317      -1.82779312      -2.17906022
H        0.79256648      -2.63042283       0.38336226
H        0.30200326      -1.42429376       0.32014766
