21
Properties=species:S:1:pos:R:3 pbc="F F F"
H        0.00000000       0.00000000       0.00000000
H        0.80713278      -0.08439321       0.53802919
H        1.46078146      -0.64061451      -0.02471870
H       -0.73755097      -0.36585209       0.61277616
H       -1.04292977      -1.14045417       0.10800266
H        0.65015513      -0.57944131       1.42324626
H        1.15482247      -1.41117239       1.38330531
H       -0.88669956      -1.87226534       0.73098373
H        0.94743615      -0.90480638      -0.87324870
H       -0.01053417      -0.53895426      -0.91530865
H       -0.29551888      -2.50813961       0.29026836
H       -0.63679928      -1.32522511      -0.75743282
H        0.64187574      -2.52686548       0.82418597
H       -0.16530639      -2.23681784      -0.76157045
H       -0.33161810      -0.68116057       1.43973446
H        1.33926797      -2.22841358       0.13288683
H        0.90301573      -2.04364252      -0.71776271
H        1.59747624      -1.49556565       0.52017361
H        0.88027543      -1.87404263      -0.80897200
H        0.49064589      -2.12025237       1.44761777
H       -0.45807940      -1.64659166       1.44306445
