20
Properties=species:S:1:pos:R:3 pbc="F F F"
H        0.00000000       0.00000000       0.00000000
H       -0.61304885      -0.15966894      -0.80746567
H       -0.33189824       0.74740851       0.62011933
H       -0.01335800       0.10452293      -1.59733748
H       -1.14025521       1.06271696       0.17830423
H       -0.46950123       0.83633417      -2.04949522
H       -1.36471021       0.50649565      -0.65449929
H       -0.94382101       2.03079247      -0.10020503
H        0.33535907       1.45648837       0.61426371
H        0.86421919       0.38766956      -1.28469205
H       -1.02914333       2.04769158      -1.06999648
H        0.17254820       1.56814539      -2.03258848
H       -1.29459465       1.14936328      -1.45144916
H        0.90018827       0.33425367      -0.26039863
H       -0.20242369       2.27722526      -1.48062587
H        1.00303686       1.25283694      -1.63392806
H       -0.02971685       2.24863100       0.15478685
H        1.12374270       1.80905819      -0.77989537
H        1.05662405       1.24091053       0.05828923
H        0.39760828       2.36161852      -0.71845764
