21
Properties=species:S:1:pos:R:3 pbc="F F F"
H        0.00000000       0.00000000       0.00000000
H       -0.81573808      -0.52769721      -0.06456009
H       -0.09677097       0.68549418       0.68468529
H       -1.55243397      -0.09620762       0.50501847
H       -1.18728042       0.69819140       1.04252839
H       -0.22798127       0.75160730       0.68167400
H       -1.33531249       0.13294125       1.44678867
H       -0.96317786      -1.52595150       0.12271966
H       -0.12929744      -1.66105604       0.32407796
H       -1.97720611      -0.17662594       1.94307065
H       -0.22869185      -2.05996728       1.26445794
H        0.24080881      -1.45006728       1.86082363
H       -0.42868713      -1.07161307       2.45799065
H       -0.43207663      -0.11727571       2.26488543
H       -1.57895195      -1.80369163       0.96403402
H       -1.00844610      -2.21305370       1.63857603
H       -2.64271331      -0.64628696       1.40961075
H       -1.58196557      -0.92403448       2.52486897
H       -1.98620617      -0.94604921       1.35380006
H        0.22283405       0.06749526       1.56845701
H        0.77501887      -0.70710683       1.36074460
