20
Properties=species:S:1:pos:R:3 pbc="F F F"
H        0.00000000       0.00000000       0.00000000
H        0.97460508       0.08895500       0.30912116
H       -0.60534239       0.05341591       0.82706183
H       -0.14527297       0.73181123      -0.62562698
H        0.05492777       0.14237091       1.60773742
H        0.97460508       0.21334189       1.32787120
H        1.26418054       0.87572753      -0.07228786
H        1.49327302       1.51160192       0.62859821
H       -0.87930489       1.28803253      -0.17270446
H        0.53005791       1.33927560      -0.61956382
H        1.35310340       1.15544558       1.47788298
H       -0.48300827       2.21543932       0.01753029
H       -0.51705062       2.29983258       0.98695266
H       -0.15615903       1.00721526       2.00213242
H        0.58730578       1.68139720       1.91406286
H       -0.87541550       1.38566947       1.46593893
H        0.85060304       2.36994481       0.50880575
H        0.32047835       2.21912336      -0.25900123
H        0.33206373       2.47579622       1.31647980
H       -1.07293153       0.77576941       0.73308814
