20
Properties=species:S:1:pos:R:3 pbc="F F F"
H        0.00000000       0.00000000       0.00000000
H       -0.26684549      -0.92909771       0.11675546
H        0.37769201      -1.29494977       0.82671845
H        0.92428565      -0.56313854       1.16398501
H        1.03548813      -1.93781734       0.37136206
H       -0.02118729      -1.31633198      -0.68201828
H        0.26229203      -0.60725206      -1.28609276
H        1.23037577      -0.83686560      -1.53791702
H        0.81528753      -1.95471632      -0.57694542
H        1.79825449      -0.12778568      -1.18751681
H        0.65008223       0.23147160       0.67259103
H        0.31291467       0.18477097      -0.90332997
H        1.61366999      -1.62236416      -1.12962198
H        1.99257278      -1.57196522       0.43022770
H        1.89949846      -0.75789714       0.91030622
H        2.18579364      -0.03534925       0.24002016
H        1.23239458       0.50007951      -0.84677720
H        1.40752208       0.54678011       0.14825678
H        2.37668562      -0.45611450      -0.55037051
H        2.31581259      -1.37172055      -0.50333554
