20
Properties=species:S:1:pos:R:3 pbc="F F F"
H        0.00000000       0.00000000       0.00000000
H        0.68725604      -0.43977645       0.53135377
H        1.32397175       0.29203478       0.61565274
H        1.03125405       1.10569561       0.16806656
H        2.21035767       0.02784291       0.17085361
H        2.07175398      -0.88374972      -0.27982551
H        2.37714195       0.66371727      -0.54741347
H        1.16763163      -1.16232431      -0.01681381
H        2.12237334      -0.73226893      -1.24032128
H        0.72497791      -1.24671757      -0.87994558
H       -0.04400291      -0.49897972      -0.83495146
H        1.22092342      -0.99646080      -1.65373921
H        0.21392965       0.92909771      -0.19766754
H        1.69052315       1.33530915      -0.58424038
H        0.30321428       1.05348456      -1.21249771
H        0.10261366       0.12607765      -1.60364938
H        1.28657770       1.28309810      -1.39579499
H        2.33076048       0.13776571      -1.42749739
H        0.88064992      -0.20185065      -2.10192394
H        1.53867924       0.50722927      -1.99118090
