20
Properties=species:S:1:pos:R:3 pbc="F F F"
H        0.00000000       0.00000000       0.00000000
H        0.59380746      -0.49897972      -0.58861941
H        0.36755341      -0.26936617      -1.56299639
H       -0.63849199       0.49504808      -0.63291329
H        0.02719364      -1.08583856      -2.08343077
H       -0.40941226       0.40087977      -1.54253709
H        0.07043746      -1.83949924      -1.46846223
H        0.40432212      -1.50714707      -0.55665797
H       -0.94441199      -0.92616963      -2.37293434
H       -0.89217532      -2.17185140      -1.34101570
H       -0.33167210      -1.63153398       0.14773136
H       -1.15873313      -2.02037048      -0.41686130
H       -1.45996916      -1.61607265      -1.90384865
H       -1.55174017       0.17973956      -0.51200247
H       -1.22473836      -0.04632199      -2.06415272
H       -1.50425243      -0.59162891       0.16331929
H       -1.86125922      -0.21917161      -1.40553021
H       -0.56764609      -0.64230555       0.42458820
H       -1.82858753      -1.38623905      -0.29653105
H       -2.04139948      -1.13559544      -1.21301877
