21
Properties=species:S:1:pos:R:3 pbc="F F F"
H        0.00000000       0.00000000       0.00000000
H       -0.43620220       0.58582085      -0.72101700
H       -1.40170634       0.67021406      -0.62752682
H       -1.63342297       0.17123434       0.17583334
H       -0.76280731      -0.26419187       0.63375980
H       -0.32266259       0.03289741      -1.64053416
H       -1.25891435      -0.19671613      -1.99271894
H       -1.87568009       0.20666596      -1.41097808
H        0.15839329      -0.84379196      -1.40961230
H       -0.43242434      -1.59745264      -1.58565474
H        0.35247484      -0.81366080      -0.40221706
H       -2.23457050      -0.56057692      -0.05029707
H       -2.39579225      -0.50716102      -1.06246209
H       -0.55399650      -2.03722906      -0.72549319
H       -2.04331732      -1.32082176      -1.46467912
H       -0.04091763      -1.59745264      -0.02448851
H       -1.76394081      -1.39230800       0.13622954
H       -1.64155304      -1.87660050      -0.77347994
H       -1.55028677      -1.98381317      -0.48491776
H       -1.39110410      -1.21433258      -1.97521746
H       -0.56954592      -1.68399358      -1.74604154
