21
Properties=species:S:1:pos:R:3 pbc="F F F"
H        0.00000000       0.00000000       0.00000000
H       -0.33764970       0.29845181       0.92208624
H       -1.21698689      -0.11091015       1.00723279
H       -0.64743823       1.26652730       0.78001273
H       -1.27963865      -0.77199280       0.29511940
H       -0.52093583      -0.72131616      -0.31304413
H       -0.82246804      -0.40600765      -1.18351519
H       -2.07840014      -0.55415428      -0.21731329
H       -0.40956461       0.45883673      -1.35560763
H        0.15093708       0.67667520      -0.58981055
H       -2.47103238       0.24045587       0.18579391
H       -0.22730649       1.47128534      -0.17317238
H       -1.78435528      -0.32454073      -1.17341948
H       -1.92080617       0.52360249       0.93755186
H       -1.66583538       1.39091420       0.80682945
H       -1.15817213       1.15565348      -1.44138145
H       -1.00090599       1.72192895      -0.70869315
H       -1.97028291       0.62252116      -1.30212700
H       -2.41474271       0.97226709      -0.45400670
H       -1.96736765       1.70622277      -0.06364161
H       -1.18966889       1.79061604      -0.64340311
