21
Properties=species:S:1:pos:R:3 pbc="F F F"
H        0.00000000       0.00000000       0.00000000
H       -0.49101692      -0.19475858      -0.87994057
H       -0.08869940       0.47548735      -1.54494798
H        0.67751229       0.66108263      -0.22805223
H        0.38993028       1.40849113       0.41382083
H       -1.43375146      -0.00998761      -0.72128284
H        0.59515065       1.09020185      -1.08909822
H       -1.60118210       0.35586447       0.22287977
H       -0.64677870       0.41201967       0.72296786
H        0.14777756       2.16215181      -0.15311703
H       -0.37643662       1.36768496       0.98170096
H        0.22942472       1.87900519      -1.08113790
H       -1.70660543       0.72182363      -1.30271554
H       -0.93300593       0.97246718      -1.83823633
H       -0.78806525       2.37999034       0.00438085
H       -1.27908218       2.18523169      -0.87555969
H       -1.94079077       1.53829598      -0.72664785
H       -1.14567089       1.98239946       0.69234228
H       -1.89296818       1.48341978       0.31733969
H       -1.60573721       0.55432206       0.36567923
H       -0.65548980       1.89590418      -1.48697245
